27
Properties=species:S:1:pos:R:3 pbc="F F F"
C       -4.21308246       1.75521444      -3.07071508
C       -1.25308246       1.82621444      -0.94471508
C       -2.85208246       1.56821444      -2.44371508
C       -1.79408246       0.76121444      -2.78771508
N       -2.49008246       2.18821444      -1.26871508
N       -0.79108246       0.98721444      -1.86371508
H       -0.71108246       2.17321444      -0.07471508
H        0.14291754       0.58721444      -1.88471508
H       -1.74708246       0.11021444      -3.64871508
H       -4.95408246       1.77321444      -2.27171508
H       -4.41408246       0.88821444      -3.69471508
H       -4.33732246       2.64343444      -3.70760508
C        1.77991754       0.14321444       0.67728492
C        2.34391754       1.33321444       1.46628492
C        1.82591754      -1.15278556       1.41428492
C        2.78891754      -2.11878556       1.39928492
C        1.25891754      -2.71978556       2.84928492
N        0.83291754      -1.57478556       2.29828492
N        2.40291754      -3.09278556       2.27828492
H        0.74691754       0.34621444       0.39928492
H        2.35691754       0.02321444      -0.23771508
H        3.34791754       1.06321444       1.79728492
H        3.79391754      -2.05578556       1.10428492
H        0.72591754      -3.28778556       3.60328492
H        2.93891754      -3.90578556       2.55728492
H        1.68851754       1.51873444       2.33001492
H        2.41883754       2.22358444       0.82469492
