25
Properties=species:S:1:pos:R:3 pbc="F F F"
C       -2.86752569      -0.35808930       1.79329517
C       -1.59352569      -0.02808930      -0.47070483
C        0.51847431       0.21791070       0.17029517
C       -1.63252569      -0.12208930       0.90429517
C       -0.26052569       0.03991070       1.33629517
C        1.87947431       0.43391070       0.21929517
C        2.52047431       0.45191070       1.44729517
C        0.40447431       0.04591070       2.58329517
C        1.81247431       0.30391070       2.62229517
N       -0.32252569       0.20591070      -0.90070483
H       -0.04052569       0.24991070      -1.87770483
H       -2.46252569      -0.11808930      -1.11270483
H        2.43747431       0.57791070      -0.69470483
H       -3.67952569       0.27291070       1.44129517
H       -2.62652569      -0.06208930       2.81529517
H        3.58647431       0.61991070       1.48729517
H       -0.16152569      -0.10508930       3.48729517
H        2.32147431       0.38591070       3.56829517
H       -3.22942369      -1.39676930       1.77975517
C       -0.55952569      -0.89508930      -4.19870483
O        0.46047431      -0.08808930      -3.61670483
H        0.87147431       0.45391070      -4.32070483
H       -1.03252569      -1.45608930      -3.39070483
H       -0.10652569      -1.62008930      -4.87670483
H       -1.34690769      -0.33907930      -4.72868483
