29
Properties=species:S:1:pos:R:3 pbc="F F F"
C       -1.83733597      -1.57867695       0.07943026
C       -0.66133597      -1.91167695       1.02543026
C       -1.46133597      -1.90367695      -1.36556974
C       -3.08633597      -2.37467695       0.48743026
H       -2.05533597      -0.51267695       0.13343026
H        0.25066403      -1.47167695       0.63043026
H       -1.36433597      -2.97767695      -1.50456974
H       -2.22033597      -1.52567695      -2.04956974
H       -0.51233597      -1.43167695      -1.61856974
H       -2.95233597      -3.43167695       0.25143026
H       -3.22233597      -2.30267695       1.55643026
H       -0.54983597      -2.99951695       1.14446026
H       -0.82038597      -1.48152695       2.02527026
H       -4.00883597      -2.03849695      -0.00851974
C       -0.46333597       1.82932305      -0.77656974
C       -0.21033597       3.33632305      -0.83856974
C        0.70466403       1.07732305      -0.21556974
C        1.63766403       0.31132305      -0.83656974
C        2.18166403       0.45932305       1.29043026
N        1.05866403       1.15132305       1.11743026
N        2.55166403      -0.05967695       0.12543026
H       -1.31233597       1.63432305      -0.12556974
H       -0.70733597       1.44332305      -1.76756974
H        0.36166403       3.62332305       0.04943026
H        1.66366403       0.07332305      -1.88956974
H        2.73566403       0.36232305       2.21543026
H        3.38766403      -0.61367695      -0.02556974
H       -1.15573597       3.89826305      -0.85974974
H        0.39642403       3.58018305      -1.72308974
