20
Properties=species:S:1:pos:R:3 pbc="F F F"
C        0.81077511       0.78098588       0.24060057
C        1.20577511       1.91898588      -0.73539943
C        1.78377511       0.74898588       1.44060057
O       -0.50222489       0.96598588       0.75260057
H        0.86977511      -0.17201412      -0.28539943
H        0.54477511       1.88398588      -1.59939943
H        1.65577511       1.63098588       2.06860057
H        1.57477511      -0.13301412       2.04360057
H        2.82477511       0.67198588       1.13160057
H       -0.68422489       0.25098588       1.36560057
H        2.25410511       1.74980588      -1.02240943
H        1.03547511       2.87891588      -0.22595943
C       -1.59722489      -2.17501412      -0.13339943
C       -1.57822489      -2.18901412      -1.65939943
H       -2.52522489      -1.75101412       0.24960057
H       -1.53822489      -3.20201412       0.22860057
H       -0.73922489      -1.63501412       0.25660057
H       -2.44022489      -2.75501412      -2.00039943
H       -1.64455489      -1.16266412      -2.04953943
H       -0.66226489      -2.68438412      -2.01384943
