24
Properties=species:S:1:pos:R:3 pbc="F F F"
C        3.49463401      -0.39313266       2.59592533
C        0.90263401       0.27086734      -0.11507467
C        1.74663401       0.46686734       0.98092533
C        0.84663401      -0.94313266      -0.76207467
C        2.52063401      -0.59813266       1.45892533
C        1.54863401      -2.02413266      -0.26207467
C        2.41863401      -1.83213266       0.84192533
H        0.33063401       1.10386734      -0.49607467
H        1.79263401       1.42486734       1.46192533
H        0.21263401      -1.06313266      -1.63007467
H        1.48763401      -2.97413266      -0.76207467
H        3.83663401       0.64286734       2.56792533
H        4.36563401      -1.03013266       2.44692533
H        3.01363401      -2.66113266       1.19792533
H        3.07740401      -0.59881266       3.59272533
C       -2.33736599       1.60386734       0.22192533
C       -3.92836599       1.49186734      -1.99907467
S       -2.66336599       0.56386734      -1.21507467
H       -3.23136599       1.69786734       0.83692533
H       -1.55336599       1.14886734       0.82592533
H       -2.01236599       2.59086734      -0.10807467
H       -4.12436599       1.06386734      -2.98107467
H       -3.55236599       2.50286734      -2.14807467
H       -4.87743599       1.53857734      -1.44492467
