20
Properties=species:S:1:pos:R:3 pbc="F F F"
C       -1.98799704      -1.60902311       0.91807205
C       -1.78399704       0.79697689       0.39507205
N       -1.33799704      -0.45002311       0.30307205
N       -2.88499704       1.06397689       1.07507205
N       -1.13099704       1.78297689      -0.18992795
H       -0.43199704      -0.60502311      -0.13692795
H       -1.43899704      -2.51302311       0.64507205
H       -3.00999704      -1.70702311       0.54507205
H       -3.44899704       0.31597689       1.43807205
H       -3.22599704       2.01097689       1.13507205
H       -0.28299704       1.57297689      -0.70192795
H       -1.47899704       2.72697689      -0.15492795
H       -1.99088025      -1.51099311       2.01369105
C        3.70100296      -0.56102311      -0.33192795
C        2.22100296      -0.39802311      -0.64792795
O        1.42900296      -1.29402311      -0.27992795
O        1.84100296       0.62197689      -1.26492795
H        4.04100296      -1.54502311      -0.66292795
H        3.84000296      -0.49202311       0.75007205
H        4.30556896       0.20934689      -0.83295765
