16
Properties=species:S:1:pos:R:3 pbc="F F F"
C        1.66971056      -0.68056642       0.42591244
C        3.05671056      -0.44056642       0.99491244
H        1.73371056      -1.09356642      -0.58108756
H        1.12471056      -1.38956642       1.04691244
H        1.12771056       0.26443358       0.39291244
H        3.59671056      -1.37756642       0.99091244
H        3.62027056       0.29772358       0.40557244
H        2.97114056      -0.08811642       2.03340244
C       -1.85028944       0.10643358      -0.38008756
C       -2.87928944       1.01843358      -1.03508756
H       -1.97828944       0.09143358       0.70091244
H       -1.94828944      -0.90756642      -0.76508756
H       -0.85428944       0.47443358      -0.62408756
H       -2.68328944       1.03543358      -2.10608756
H       -2.78201944       2.04470358      -0.65127756
H       -3.89044944       0.60372358      -0.91031756
