34
Properties=species:S:1:pos:R:3 pbc="F F F"
C        2.53752175      -1.38331840       0.04112144
C        0.46452175      -0.02231840       0.72112144
C        1.13852175      -1.19431840       0.54912144
C       -1.00647825      -1.58631840       1.29012144
C        0.19952175      -2.22531840       0.90112144
C       -2.12047825      -2.31231840       1.69312144
C        0.27552175      -3.63031840       0.91712144
C       -2.02147825      -3.68931840       1.70212144
C       -0.85347825      -4.36031840       1.32512144
N       -0.81347825      -0.24231840       1.17112144
H        0.87252175       0.95868160       0.50112144
H       -1.54547825       0.47068160       1.24512144
H        2.55352175      -1.06331840      -1.00087856
H        2.78352175      -2.44631840       0.05712144
H       -3.02947825      -1.81331840       1.98412144
H        1.18452175      -4.13631840       0.62712144
H       -2.88147825      -4.26831840       2.00012144
H       -0.81147825      -5.43531840       1.36612144
H        3.31528175      -0.82540640       0.58317144
C        2.33652175       4.17068160      -1.35587856
C       -1.27647825       1.95468160      -1.54087856
C       -1.22347825       3.08868160      -0.74487856
C       -0.18447825       1.50768160      -2.26287856
C       -0.04147825       3.80568160      -0.66487856
C        1.00352175       2.23068160      -2.18287856
C        1.07052175       3.36868160      -1.39487856
H       -2.20347825       1.40068160      -1.59487856
H       -2.09447825       3.40968160      -0.19287856
H       -0.25347825       0.62468160      -2.88187856
H        0.01152175       4.69768160      -0.05687856
H        1.86552175       1.90568160      -2.74787856
H        2.07252175       5.22768160      -1.39487856
H        2.89852175       3.95268160      -2.26587856
H        3.01083175       4.00916460      -0.50193856
