16
Properties=species:S:1:pos:R:3 pbc="F F F"
C       -0.35349364      -1.07838917       1.20434453
C       -0.24349364      -1.69438917       2.60234453
H       -1.39149364      -1.05638917       0.87034453
H       -0.00049364      -0.04638917       1.23934453
H        0.26050636      -1.63638917       0.49834453
H       -0.99749364      -1.24938917       3.24934453
H       -0.39124064      -2.78312917       2.54927453
H        0.74713436      -1.47158917       3.02544453
C       -0.04449364       1.66661083      -1.28965547
C        0.64350636       1.10261083      -2.51665547
H       -0.60549364       2.55961083      -1.55065547
H       -0.74449364       0.93261083      -0.89065547
H        0.69950636       1.90961083      -0.53165547
H       -0.11849364       0.85561083      -3.25165547
H        1.32764336       1.84406083      -2.95507547
H        1.19027736       0.18415083      -2.25690547
