18
Properties=species:S:1:pos:R:3 pbc="F F F"
C       -2.12756447      -0.54378466       0.04981559
C       -3.18456447      -1.64478466      -0.08918441
N       -1.39856447      -0.32578466      -1.25418441
H       -2.61856447       0.38221534       0.36881559
H       -1.42156447      -0.83178466       0.83681559
H       -3.89356447      -1.33778466      -0.86118441
H       -3.73356447      -1.74178466       0.84981559
H       -2.02756447       0.04121534      -1.96318441
H       -0.65656447       0.35121534      -1.08718441
H       -0.99856447      -1.18378466      -1.61118441
H       -2.72812647      -2.61374466      -0.33976441
C        2.94043553       0.18221534       0.92581559
C        1.66343553       0.64321534       0.31181559
O        0.68943553       0.68521534       1.09081559
O        1.58843553       1.04521534      -0.86118441
H        2.74543553      -0.52778466       1.73381559
H        3.42143553       1.05721534       1.36681559
H        3.63037253      -0.29086466       0.21154559
