20
Properties=species:S:1:pos:R:3 pbc="F F F"
C        2.27922090      -0.25787995      -1.44892454
C        3.66622090       0.38512005      -1.54692454
H        2.34722090      -1.25587995      -1.01392454
H        1.63622090       0.35612005      -0.81992454
H        1.81022090      -0.32187995      -2.42892454
H        3.55822090       1.34512005      -2.05392454
H        4.35611090      -0.24179395      -2.13090454
H        4.08033090       0.53727205      -0.53927454
C       -0.41877910       0.86012005       2.45607546
C       -1.07577910      -1.14487995      -0.49492454
C       -0.88877910       0.30612005       1.14907546
C       -1.78177910       0.80112005       0.25407546
N       -0.46677910      -0.91687995       0.66407546
N       -1.86677910      -0.11887995      -0.76092454
H       -0.95077910      -2.02187995      -1.12092454
H       -2.46677910      -0.05087995      -1.57392454
H       -2.32577910       1.73012005       0.33007546
H       -0.35277910       1.94712005       2.39407546
H        0.59122090       0.48412005       2.62007546
H       -1.07047210       0.56863005       3.29293546
