20
Properties=species:S:1:pos:R:3 pbc="F F F"
C       -0.10113858       2.46263610       1.31562393
C       -1.62813858       0.74263610       0.33862393
N       -1.78613858      -0.30636390      -0.45237607
N       -0.42613858       1.30263610       0.46562393
N       -2.67613858       1.21263610       0.99762393
H       -0.96813858      -0.66436390      -0.94937607
H       -2.70413858      -0.66136390      -0.66237607
H        0.35786142       0.82263610       0.02162393
H       -2.57613858       2.03863610       1.56362393
H       -3.58713858       0.80063610       0.87662393
H       -0.89013858       2.66763610       2.04062393
H        0.01786142       3.34563610       0.68462393
H        0.83378142       2.29819610       1.87142393
C        2.37586142      -2.54536390      -0.25337607
C        1.62286142      -1.29736390      -0.69637607
O        0.75786142      -1.36636390      -1.59637607
O        1.92886142      -0.22236390      -0.13537607
H        2.41586142      -2.56736390       0.83762393
H        3.39986142      -2.47336390      -0.62337607
H        1.94337142      -3.48950390      -0.61607607
