16
Properties=species:S:1:pos:R:3 pbc="F F F"
C        0.65124829       0.08421131      -1.90438602
C       -0.38175171      -0.94178869      -2.43738602
H        0.70124829       0.94721131      -2.56438602
H        0.35424829       0.43921131      -0.92338602
H        1.63924829      -0.37278869      -1.82138602
H       -0.34675171      -1.84078869      -1.82638602
H       -0.17305471      -1.19545729      -3.48719452
H       -1.37763771      -0.48356739      -2.34659302
C        0.45924829       0.03021131       1.92561398
C       -0.72575171       0.83121131       2.41361398
H        0.76324829      -0.69878869       2.67361398
H        0.19524829      -0.50378869       1.01861398
H        1.29824829       0.68921131       1.72161398
H       -1.58475171       0.16721131       2.34761398
H       -0.58070871       1.10606731       3.46879998
H       -0.92425071       1.70044831       1.76938998
