29
Properties=species:S:1:pos:R:3 pbc="F F F"
C       -1.61188265       1.82518724      -0.06811372
C       -2.47188265       0.62918724       0.39788628
C       -0.61088265       0.22318724      -1.64811372
N       -0.61388265       1.40918724      -1.06011372
N       -1.57888265      -0.65381276      -1.44911372
N        0.36011735      -0.10681276      -2.47111372
H       -2.25488265       2.60218724      -0.48211372
H       -1.07788265       2.23318724       0.79188628
H       -1.84588265      -0.23281276       0.64788628
H       -3.36088265       0.48018724      -0.22211372
H        0.08711735       2.08318724      -1.33511372
H       -2.51488265      -0.29581276      -1.38611372
H       -1.48788265      -1.56981276      -1.86511372
H        1.12311735       0.52518724      -2.65311372
H        0.41111735      -1.03181276      -2.86711372
H       -2.76776265       0.62918724       1.45734628
C        0.96411735      -2.54981276       0.94788628
C        1.39111735      -0.16781276       1.33188628
N        1.49911735      -1.25981276       0.57388628
N        0.70311735      -0.19581276       2.47588628
N        1.93011735       0.98918724       0.94488628
H        2.00211735      -1.20481276      -0.31511372
H        0.31811735      -1.07181276       2.81888628
H        0.54711735       0.66118724       3.00488628
H        2.49011735       1.00518724       0.10288628
H        1.78611735       1.83018724       1.48688628
H        0.80611735      -3.13181276       0.03788628
H       -0.00888265      -2.46181276       1.42988628
H        1.66726735      -3.10255276       1.58824628
