23
Properties=species:S:1:pos:R:3 pbc="F F F"
C        2.85486159      -1.09523044      -0.36814621
C       -1.34113841      -0.98523044       0.59585379
C       -0.41113841      -0.38723044       1.42785379
C       -0.92113841      -1.63923044      -0.55414621
C        0.94686159      -0.43623044       1.12385379
C        0.45086159      -1.72323044      -0.84914621
C        1.38586159      -1.10123044      -0.01314621
H       -2.39513841      -0.93223044       0.83585379
H       -0.74313841       0.12976956       2.31785379
H       -1.64413841      -2.08823044      -1.22014621
H        1.65686159       0.04176956       1.78285379
H        0.77486159      -2.24223044      -1.73914621
H        3.10986159      -2.03723044      -0.85714621
H        3.43986159      -1.02023044       0.54485379
H        3.13831159      -0.25276244      -1.01614621
C       -1.49613841       2.48276956      -0.38514621
C       -1.37313841       3.97076956      -0.74714621
H       -2.53713841       2.17176956      -0.44914621
H       -0.90013841       1.87776956      -1.06814621
H       -1.13213841       2.31776956       0.62885379
H       -0.30513841       4.18476956      -0.78414621
H       -1.85618841       4.57193256       0.03724379
H       -1.74757841       4.16917256      -1.76224621
