18
Properties=species:S:1:pos:R:3 pbc="F F F"
C        0.41008058       0.15614832      -2.54430186
C       -0.21091942      -1.14385168      -2.06230186
O       -0.53191942      -2.02685168      -2.85830186
N       -0.38991942      -1.27985168      -0.75730186
H       -0.78091942      -2.14485168      -0.41730186
H       -0.18291942      -0.53585168      -0.10030186
H        1.34008058      -0.08385168      -3.06230186
H        0.67108058       0.78914832      -1.69530186
H       -0.24585942       0.70575662      -3.23544186
C       -0.62391942       1.88114832       2.93769814
C        0.18008058       0.99814832       2.00369814
O       -0.08391942      -0.19385168       1.86069814
N        1.18608058       1.57514832       1.36669814
H       -0.73891942       2.86614832       2.49169814
H       -0.03991942       2.00014832       3.85169814
H        1.79808058       1.00614832       0.80169814
H        1.41308058       2.54214832       1.54869814
H       -1.60699942       1.45911102       3.19349814
