22
Properties=species:S:1:pos:R:3 pbc="F F F"
C        2.19495245      -1.48204558      -2.31932504
C        0.99695245      -2.06804558      -0.10432504
C        1.03595245      -1.80604558      -1.44132504
C       -1.01904755      -2.36404558      -0.92132504
N       -0.29504755      -2.41304558       0.19267496
N       -0.24004755      -1.99504558      -1.92932504
H        1.77295245      -2.04904558       0.64767496
H       -0.63504755      -2.66204558       1.11067496
H        2.92495245      -0.96004558      -1.71732504
H        1.82795245      -0.80904558      -3.09932504
H       -2.07204755      -2.57504558      -1.06432504
H        2.70727445      -2.37445558      -2.70808504
C        0.15295245       1.42195442       1.06367496
C        0.52795245       1.18895442       2.53767496
C       -0.80504755       2.59395442       0.86967496
O       -1.28904755       3.19395442       1.86167496
O       -1.13504755       2.92395442      -0.29532504
H        1.07595245       1.62695442       0.53067496
H       -0.30304755       0.51895442       0.65567496
H        0.82895245       2.14695442       2.96867496
H        1.36051045       0.47405442       2.61363496
H       -0.33340725       0.78499442       3.08982496
