16
Properties=species:S:1:pos:R:3 pbc="F F F"
C        0.10419029      -0.49855842      -1.67707517
C       -1.11680971      -1.40955842      -1.53807517
H       -0.16480971       0.55444158      -1.64007517
H        0.79919029      -0.71855842      -0.86607517
H        0.62619029      -0.68755842      -2.60607517
H       -1.56280971      -1.25355842      -0.55607517
H       -1.85172971      -1.16698642      -2.31977717
H       -0.81819971      -2.46585242      -1.60931017
C        0.16419029       1.34244158       1.04992483
C        0.85219029       0.56744158       2.15992483
H        0.75619029       1.39344158       0.14492483
H       -0.80280971       0.88944158       0.83092483
H       -0.00880971       2.36444158       1.38592483
H        0.73419029      -0.49655842       1.95492483
H        0.32319029       0.77744158       3.08792483
H        1.92540029       0.78881768       2.25592483
