16
Properties=species:S:1:pos:R:3 pbc="F F F"
C       -0.59614965       1.20221838      -1.00185768
C       -0.85414965       2.23721838      -2.09185768
H       -1.54214965       0.77021838      -0.66985768
H        0.03885035       0.40721838      -1.38385768
H       -0.10114965       1.67821838      -0.15585768
H        0.11985035       2.61721838      -2.38985768
H       -1.46463965       3.06594138      -1.70388768
H       -1.33539965       1.81080538      -2.98436768
C        0.30785035      -2.00078162       0.97714232
C        1.13985035      -1.43778162       2.11514232
H        0.55485035      -3.04878162       0.82014232
H       -0.75214965      -1.93278162       1.22314232
H        0.49785035      -1.44678162       0.05914232
H        0.97385035      -2.06178162       2.99414232
H        2.20645035      -1.45994262       1.84706232
H        0.83475035      -0.40995962       2.36110232
