31
Properties=species:S:1:pos:R:3 pbc="F F F"
C        0.57496517       3.79437130      -1.35158825
C       -0.74903483       0.23937130      -1.08958825
C        0.31696517       1.14837130      -1.35158825
C       -0.19503483       2.48737130      -1.17658825
C       -1.50603483       2.34037130      -0.82158825
C       -0.59303483      -1.14062870      -1.18458825
C        0.65596517      -1.62462870      -1.54758825
C        1.56996517       0.63037130      -1.71158825
C        1.72896517      -0.74862870      -1.80858825
N       -1.84103483       1.00037130      -0.76558825
H       -2.76403483       0.65137130      -0.52758825
H       -1.42203483      -1.80862870      -0.99558825
H       -2.18903483       3.15737130      -0.62358825
H        0.79296517      -2.69162870      -1.65358825
H        2.39296517       1.29637130      -1.92958825
H       -0.09303483       4.52737130      -1.80458825
H        1.36696517       3.61037130      -2.06258825
H        2.68996517      -1.15062870      -2.10058825
H        0.96658717       4.21478830      -0.41356825
C        0.68596517      -0.73762870       1.90241175
C        1.70796517      -0.75562870       3.02041175
C       -0.45403483      -1.71462870       2.14441175
O       -1.38703483      -1.42862870       2.89241175
N       -0.39203483      -2.87862870       1.51041175
H        0.28396517       0.26837130       1.77441175
H        1.20696517      -1.00562870       0.98741175
H        2.61296517      -0.28062870       2.65841175
H        1.95896517      -1.79862870       3.21841175
H       -1.13403483      -3.54762870       1.65441175
H        0.37596517      -3.07462870       0.89041175
H        1.39200917      -0.28384870       3.96253175
