26
Properties=species:S:1:pos:R:3 pbc="F F F"
C        2.19206158      -0.15390225      -2.07555886
C        3.55306158       0.51409775      -2.12655886
C        2.38206158      -1.30990225      -3.02455886
H        1.40106158       0.51709775      -2.40955886
H        1.98906158      -0.52090225      -1.06655886
H        3.63406158       1.16009775      -2.99955886
H        3.69706158       1.07909775      -1.21055886
H        2.36406158      -0.96890225      -4.06055886
H        1.64506158      -2.06090225      -2.82955886
H        4.24002158      -0.34141525      -2.20521886
H        3.37328158      -1.69119725      -2.73804886
C       -3.30293842      -1.01690225       0.35844114
C       -0.17893842       1.15709775       0.42744114
C       -1.32693842       0.49809775      -0.02255886
C        0.22106158       1.03609775       1.75744114
C       -2.08193842      -0.28690225       0.85244114
C       -0.53093842       0.25509775       2.63844114
C       -1.67893842      -0.40290225       2.18344114
H        0.40306158       1.75709775      -0.25655886
H       -1.62493842       0.59309775      -1.05755886
H        1.10706158       1.54909775       2.10844114
H       -0.22293842       0.16309775       3.67144114
H       -3.53393842      -1.84590225       1.02544114
H       -3.05593842      -1.45090225      -0.61255886
H       -2.25693842      -1.01090225       2.86244114
H       -4.19393842      -0.38293525       0.23925814
