28
Properties=species:S:1:pos:R:3 pbc="F F F"
C       -2.59565432       0.23565887       1.09055575
C       -0.74565432      -0.33934113      -0.56144425
C       -1.35665432       0.50665887       0.30355575
C        0.53634568       1.48265887      -0.58744425
C       -0.54165432       1.69365887       0.30955575
C        1.49834568       2.43965887      -0.83244425
C       -0.61865432       2.91865887       0.97655575
C        1.37034568       3.65465887      -0.18544425
C        0.32234568       3.88265887       0.70955575
N        0.37934568       0.22665887      -1.08844425
H       -1.10765432      -1.32834113      -0.81444425
H        0.92734568      -0.21134113      -1.83444425
H       -2.43665432       0.58765887       2.09755575
H       -2.72765432      -0.84634113       1.15655575
H        2.31034568       2.24665887      -1.51844425
H       -1.39765432       3.10165887       1.69855575
H        2.10434568       4.43065887      -0.35744425
H        0.27234568       4.81665887       1.24155575
H       -3.52160732       0.66472487       0.68005575
C        1.06734568      -2.85134113       1.00655575
C        0.35534568      -3.64934113      -0.05544425
O       -0.86665432      -3.72134113      -0.10444425
N        1.13934568      -4.27334113      -0.92144425
H        1.42434568      -1.94434113       0.52655575
H        1.92534568      -3.42034113       1.35455575
H        0.72134568      -4.82834113      -1.64944425
H        2.14334568      -4.24734113      -0.77644425
H        0.45318568      -2.57428313       1.87606575
