20
Properties=species:S:1:pos:R:3 pbc="F F F"
C        0.82654612       3.40187778      -1.02465959
C        1.71054612       3.33987778       0.21434041
H        0.87654612       4.40087778      -1.45465959
H        1.17254612       2.67287778      -1.75465959
H       -0.20345388       3.17887778      -0.75065959
H        1.65054612       2.33687778       0.64334041
H        1.32628612       4.08347778       0.92806041
H        2.74799612       3.55297778      -0.08277959
C        0.13854612      -2.24112222       2.04134041
C       -0.74945388       0.02487778      -0.68365959
C       -0.28445388      -1.59212222       0.74334041
C       -0.62145388      -2.15812222      -0.45065959
N       -0.37445388      -0.22312222       0.56534041
N       -0.90445388      -1.13512222      -1.31865959
H       -0.88745388       1.03487778      -1.05265959
H       -1.18145388      -1.25012222      -2.28165959
H       -0.68145388      -3.18812222      -0.74865959
H        1.08254612      -1.77912222       2.33234041
H        0.30454612      -3.29312222       1.82734041
H       -0.59299388      -2.11424222       2.85298041
