24
Properties=species:S:1:pos:R:3 pbc="F F F"
C        2.51913620      -0.68765353      -0.22706975
C        2.85813620      -0.08565353      -1.58706975
S        3.85513620      -1.73865353       0.38993025
H        2.28613620       0.10734647       0.48093025
H        1.62413620      -1.30465353      -0.33706975
H        3.13113620      -0.89465353      -2.26906975
H        4.84613620      -0.84565353       0.28693025
H        3.69392620       0.62472647      -1.50446975
H        1.96452620       0.40600647      -1.99905975
C       -3.37186380       2.89234647       0.20893025
C       -0.84886380       0.12534647       0.86993025
C       -1.49186380       1.35834647       0.90393025
C       -1.38086380      -0.91365353       0.12093025
C       -2.67686380       1.55534647       0.19193025
C       -2.54586380      -0.72265353      -0.60006975
C       -3.18786380       0.51234647      -0.57306975
H        0.07613620      -0.01165353       1.39893025
H       -1.06186380       2.16834647       1.47693025
H       -0.88186380      -1.87265353       0.08893025
H       -2.95186380      -1.53465353      -1.18506975
H       -4.21686380       2.88734647      -0.48206975
H       -2.65686380       3.62434647      -0.16606975
H       -4.08686380       0.65734647      -1.15306975
H       -3.71335380       3.21805647       1.20256025
