23
Properties=species:S:1:pos:R:3 pbc="F F F"
C       -1.09015446       0.83562812      -2.98289184
C       -1.42215446       1.48962812      -4.31489184
H       -1.86015446       0.11062812      -2.71289184
H       -0.12715446       0.32762812      -3.05389184
H       -1.02715446       1.59662812      -2.20389184
H       -0.63315446       2.19362812      -4.56689184
H       -2.38201446       2.02447052      -4.26374184
H       -1.47974446       0.74744822      -5.12474184
C        2.10184554      -1.64937188      -0.05389184
C       -0.22615446      -0.70137188       0.20710816
C        1.05084554      -0.89637188       0.72610816
C       -1.18115446       0.06062812       0.87510816
C        1.35584554      -0.34237188       1.97910816
C       -0.85115446       0.61062812       2.11210816
C        0.39784554       0.40562812       2.66310816
H       -0.47615446      -1.12537188      -0.75589184
H       -2.15815446       0.22262812       0.44010816
H        3.05384554      -1.14037188       0.03310816
H        1.83484554      -1.61137188      -1.11089184
H        2.34284554      -0.45437188       2.38510816
H       -1.57715446       1.20362812       2.65110816
H        0.63784554       0.84062812       3.62310816
H        2.23557554      -2.70346288       0.23072816
