27
Properties=species:S:1:pos:R:3 pbc="F F F"
C        0.08956181       1.65735120      -1.73493407
C       -0.06243819       0.58435120      -2.81793407
C        1.47956181       1.69235120      -1.13593407
O        2.38856181       0.98735120      -1.57493407
N        1.66356181       2.52135120      -0.12793407
H       -0.08943819       2.64935120      -2.14593407
H       -0.63443819       1.47035120      -0.93993407
H        0.13556181      -0.39364880      -2.37993407
H        0.67556181       0.76835120      -3.60093407
H        2.51256181       2.37335120       0.41006593
H        0.86056181       3.00735120       0.26106593
H       -1.06240819       0.56419320      -3.27580507
C       -2.81543819      -2.51164880       0.47306593
C        0.68256181      -1.06964880       0.63206593
C        0.57056181      -0.17064880       1.68506593
C       -0.41243819      -1.83164880       0.24206593
C       -1.63343819      -1.68964880       0.89006593
C       -0.64343819      -0.02964880       2.34806593
C       -1.73943819      -0.79364880       1.94806593
H        1.62956181      -1.18364880       0.12206593
H        1.42856181       0.41235120       1.98506593
H       -0.31043819      -2.52864880      -0.57593407
H       -0.74243819       0.66835120       3.16806593
H       -3.30243819      -2.89964880       1.36506593
H       -2.46143819      -3.36664880      -0.10393407
H       -2.67743819      -0.68564880       2.47306593
H       -3.55534819      -1.96444380      -0.12950707
