24
Properties=species:S:1:pos:R:3 pbc="F F F"
C        1.39849373      -2.21224339      -1.28861512
C        0.23649373      -0.66324339       0.34638488
C        1.28349373      -0.89824339      -0.55661512
C        0.11549373       0.52875661       1.04838488
C        1.05649373       1.53875661       0.87638488
C        2.22849373       0.12475661      -0.71161512
C        2.10749373       1.32775661      -0.01661512
O        0.90149373       2.71475661       1.57238488
H       -0.50550627      -1.43324339       0.48938488
H       -0.70950627       0.65575661       1.73638488
H        1.53749373      -2.99024339      -0.53661512
H        2.29749373      -2.19824339      -1.90561512
H        3.05949373      -0.01624339      -1.39161512
H        0.08949373       2.69875661       2.08038488
H        2.83949373       2.11075661      -0.15861512
H        0.53660373      -2.47982339      -1.91754512
C       -3.44950627      -0.92124339      -0.68561512
C       -4.85450627      -1.51524339      -0.63761512
H       -3.05050627      -0.77624339       0.31838488
H       -2.78950627      -1.60124339      -1.22461512
H       -3.47250627       0.02775661      -1.20961512
H       -4.82250627      -2.47124339      -0.12461512
H       -5.54053627      -0.85000339      -0.09280512
H       -5.23702627      -1.70974339      -1.65045512
