17
Properties=species:S:1:pos:R:3 pbc="F F F"
C        0.43569134       1.38499098       0.66377608
C       -0.59230866       1.81799098      -1.91022392
S       -1.04930866       1.07699098      -0.32922392
H        0.65769134       2.45299098       0.67277608
H        0.25969134       1.04999098       1.68577608
H        1.28169134       0.83499098       0.26077608
H        0.14669134       2.59899098      -1.74122392
H       -1.47930866       2.28899098      -2.33222392
H       -0.20628866       1.10489098      -2.65351322
C        0.66269134      -2.29700902       1.31077608
C        1.64969134      -3.25300902       0.65777608
H       -0.11230866      -2.84800902       1.84277608
H        1.19069134      -1.66400902       2.02277608
H        0.20369134      -1.66200902       0.55377608
H        1.95769134      -3.99300902       1.39877608
H        2.53269134      -2.68100902       0.38477608
H        1.25382134      -3.77057902      -0.22845792
