19
Properties=species:S:1:pos:R:3 pbc="F F F"
C        0.97106558      -0.02346615       1.72921301
C        1.63506558       0.51553385       3.02521301
H        0.31106558       0.74853385       1.33821301
H        1.73406558      -0.26946615       0.98921301
H        0.39306558      -0.92446615       1.94021301
H        2.17106558      -0.30146615       3.50821301
H        0.85947558       0.90474385       3.70121301
H        2.36567558       1.29658385       2.76798301
C       -0.67293442       0.35453385      -1.57478699
C       -2.14193442       0.03853385      -1.35778699
C        0.15706558      -0.85946615      -1.92878699
H       -0.57993442       1.07553385      -2.38978699
H       -0.26893442       0.82153385      -0.68478699
H       -2.20493442      -0.66146615      -0.52078699
H        0.03906558      -1.59446615      -1.13178699
H       -0.20593442      -1.30546615      -2.85578699
H       -2.56376442      -0.40605615      -2.27124699
H       -2.66635442       0.96406385      -1.07780699
H        1.23208558      -0.65400615      -2.03885699
