16
Properties=species:S:1:pos:R:3 pbc="F F F"
C       -1.40675419       0.56909015      -0.25430563
C       -2.55975419       1.57509015      -0.26930563
H       -0.61775419       0.88709015      -0.94030563
H       -0.98275419       0.49509015       0.74669437
H       -1.74975419      -0.42990985      -0.52930563
H       -3.39075419       1.15609015       0.29769437
H       -2.89611419       1.76607015      -1.29905563
H       -2.23723419       2.51399015       0.20444437
C        1.33424581      -1.46690985       0.27269437
C        2.63224581      -0.67290985       0.24169437
H        1.54124581      -2.51790985       0.45769437
H        0.70124581      -1.09890985       1.08069437
H        0.81024581      -1.36590985      -0.68030563
H        3.08924581      -0.78890985       1.22169437
H        3.30593581      -1.06494085      -0.53448563
H        2.42664581       0.39620015       0.08443437
