20
Properties=species:S:1:pos:R:3 pbc="F F F"
C       -1.18956619       1.11560688       2.64889908
C        0.03143381       0.10460688       2.95089908
O        0.61443381      -0.44239312       1.97189908
O        0.36643381      -0.21339312       4.17289908
H       -1.22156619       1.85860688       3.43789908
H       -2.10356619       0.52960688       2.75489908
H       -1.24036619       1.60618188       1.66565908
C       -1.52856619      -0.63739312      -3.44410092
C        0.41943381       0.03360688      -2.07410092
N       -0.02156619      -0.66039312      -1.04310092
N       -0.24556619       0.03260688      -3.21810092
N        1.55043381       0.70160688      -1.97410092
H       -0.83656619      -1.23839312      -1.14710092
H        0.45343381      -0.62639312      -0.14510092
H        0.16343381       0.52660688      -3.99810092
H        1.92143381       1.19160688      -2.77310092
H        2.08743381       0.64660688      -1.12410092
H       -1.90756619      -1.11639312      -2.54110092
H       -1.40756619      -1.41539312      -4.20110092
H       -2.29344619       0.07506188      -3.78668092
