16
Properties=species:S:1:pos:R:3 pbc="F F F"
C       -1.15030219       1.29300469      -0.77077287
C       -1.29130219       0.29200469      -1.92177287
H       -1.81730219       2.13800469      -0.93477287
H       -1.42330219       0.81000469       0.16822713
H       -0.12330219       1.64500469      -0.67777287
H       -0.56530219      -0.49599531      -1.76377287
H       -1.11328219       0.77316469      -2.89480787
H       -2.29082919      -0.16698431      -1.90517387
C        1.64269781      -0.77199531       0.71722713
C        0.79869781      -0.81299531       1.97422713
H        2.19169781      -1.70699531       0.59922713
H        1.00969781      -0.62599531      -0.15377287
H        2.34869781       0.05600469       0.77522713
H        0.27569781       0.13800469       2.06322713
H        1.45742981      -0.94732831       2.84487713
H        0.05258681      -1.61711331       1.89229313
