20
Properties=species:S:1:pos:R:3 pbc="F F F"
C        2.40248170       1.07330478      -1.06505165
C        0.78448170       1.50930478       0.76194835
N       -0.24751830       1.10030478       1.46494835
N        1.28548170       0.73630478      -0.18305165
N        1.30048170       2.68430478       1.03094835
H       -0.75251830       0.26830478       1.13594835
H       -0.67351830       1.70530478       2.14594835
H        0.81948170      -0.16069522      -0.34005165
H        2.10048170       3.00930478       0.51494835
H        0.90748170       3.26830478       1.75194835
H        2.42048170       2.14730478      -1.26305165
H        2.23548170       0.59130478      -2.02805165
H        3.39151170       0.76464478      -0.69552465
C       -2.23651830      -2.69669522      -1.23905165
C       -1.34051830      -1.75469522      -0.45905165
O       -1.81451830      -1.02769522       0.45094835
O       -0.13551830      -1.70169522      -0.77005165
H       -1.68851830      -3.61769522      -1.45305165
H       -2.44451830      -2.26769522      -2.20505165
H       -3.21147830      -2.94152522      -0.79237865
