28
Properties=species:S:1:pos:R:3 pbc="F F F"
C       -3.06570231      -0.49023138      -3.96469895
C       -1.76870231      -0.28823138      -3.19769895
O       -1.65170231       0.59676862      -2.34969895
N       -0.76570231      -1.09623138      -3.51869895
H       -3.29770231      -1.55523138      -4.01969895
H       -2.89770231      -0.12923138      -4.97969895
H        0.09929769      -1.01623138      -3.00569895
H       -0.89570231      -1.82523138      -4.20469895
H       -3.91223631       0.05432862      -3.52103795
C        3.60229769       1.13976862       1.26930105
C        1.57129769       1.10476862      -0.30469895
C        0.00529769       0.09776862       0.94730105
C        2.19229769       0.81276862       0.87230105
C        1.20029769       0.18776862       1.70330105
C       -1.15270231      -0.47723138       1.45130105
C       -1.12070231      -0.97523138       2.73930105
C        1.21129769      -0.33223138       3.00130105
C        0.04629769      -0.90323138       3.51130105
N        0.26729769       0.66676862      -0.27169895
H       -0.40470231       0.78076862      -1.03069895
H        2.04329769       1.60676862      -1.14269895
H       -2.03570231      -0.53223138       0.84030105
H        4.15729769       1.50476862       0.40330105
H        4.07929769       0.22376862       1.62030105
H       -2.00870231      -1.43023138       3.15930105
H        2.11329769      -0.29923138       3.59530105
H        0.04329769      -1.30623138       4.51630105
H        3.63244769       1.89138862       2.07189305
