24
Properties=species:S:1:pos:R:3 pbc="F F F"
C       -0.75670518       0.65174802      -2.70636649
C       -0.04570518      -0.27325198      -3.69436649
O       -0.30370518       1.98674802      -2.81036649
H       -1.82870518       0.62474802      -2.90836649
H       -0.59970518       0.28874802      -1.69336649
H       -0.40570518      -1.28525198      -3.50236649
H       -0.92670518       2.57274802      -2.33336649
H        1.04155582      -0.25227098      -3.52876749
H       -0.32913968      -0.02425998      -4.72764649
C       -0.52770518       1.92074802       1.34163351
C        0.78629482      -0.07025198       0.51563351
C       -0.09470518       0.47374802       1.44563351
C        1.18429482      -1.39625198       0.61663351
C       -0.53270518      -0.31925198       2.50263351
C        0.72529482      -2.18225198       1.66763351
C       -0.12270518      -1.63325198       2.61963351
H        1.16029482       0.53574802      -0.29636649
H        1.84629482      -1.81925198      -0.12236649
H        0.10729482       2.42074802       0.61663351
H       -0.37270518       2.40774802       2.30363351
H       -1.17270518       0.09574802       3.26763351
H        1.01729482      -3.21825198       1.73663351
H       -0.48370518      -2.23625198       3.43863351
H       -1.56916918       2.05631002       1.01456351
