16
Properties=species:S:1:pos:R:3 pbc="F F F"
C       -0.77091387       0.23858548      -1.46246734
C       -2.01791387       0.97558548      -0.96246734
H        0.12708613       0.60358548      -0.97646734
H       -0.87691387      -0.82841452      -1.25946734
H       -0.66891387       0.38058548      -2.53946734
H       -2.14091387       0.76258548       0.09753266
H       -1.90342387       2.05963548      -1.10986934
H       -2.91300387       0.61725548      -1.49200934
C        0.92208613      -0.24841452       1.69753266
C        1.86908613      -0.96541452       0.72853266
H        1.41308613      -0.09641452       2.66153266
H        0.64608613       0.72658548       1.29553266
H        0.00708613      -0.82541452       1.84253266
H        1.30908613      -1.26341452      -0.15446734
H        2.30005613      -1.85813452       1.20531266
H        2.67274613      -0.28251452       0.41583266
