19
Properties=species:S:1:pos:R:3 pbc="F F F"
C        1.90280546       1.25453066      -1.68890137
C        1.52280546       1.30253066      -0.22790137
O        0.54480546       2.01053066       0.08209863
O        2.13380546       0.53753066       0.53909863
H        1.35980546       0.43053066      -2.15790137
H        2.96880546       1.05553066      -1.79490137
H        1.64345546       2.19003566      -2.20617137
C       -1.36819454      -0.96146934       0.13009863
C       -1.21819454      -0.57146934       1.59009863
C       -0.52419454      -2.18346934      -0.26790137
O       -2.75819454      -1.24146934      -0.09190137
H       -1.07619454      -0.12246934      -0.50090137
H       -0.19819454      -0.23446934       1.76909863
H       -0.86019454      -3.07046934       0.27009863
H       -0.61719454      -2.35746934      -1.33990137
H        0.52180546      -1.99246934      -0.03590137
H       -2.82219454      -1.71046934      -0.93690137
H       -1.50552454      -1.37733934       2.28148863
H       -1.90498454       0.26519766       1.78580863
