19
Properties=species:S:1:pos:R:3 pbc="F F F"
C        1.94391083       0.36938719       1.41202385
C        2.23891083       1.47938719       2.43302385
H        2.86191083      -0.16161281       1.15502385
H        1.23691083      -0.34161281       1.84402385
H        1.49391083       0.77638719       0.50902385
H        1.29391083       1.96438719       2.61102385
H        2.94180083       2.22067919       2.02505985
H        2.59508083       1.07305439       3.39116685
C       -1.11308917      -0.37661281      -0.82297615
C       -1.85208917       0.34538719      -1.91197615
C       -1.28308917      -1.83661281      -1.15997615
H       -1.50208917      -0.13361281       0.16702385
H       -0.05608917      -0.12261281      -0.89297615
H       -2.86608917       0.57838719      -1.58397615
H       -1.31008917       1.25438719      -2.14297615
H       -2.14008917      -2.21561281      -0.59797615
H       -0.39608917      -2.40661281      -0.88097615
H       -1.89374917      -0.34200991      -2.76973415
H       -1.47940917      -1.91643481      -2.23936815
