26
Properties=species:S:1:pos:R:3 pbc="F F F"
C        2.21062642      -1.64850516       0.92076772
C        2.73562642      -1.31750516      -0.47323228
C        2.30862642      -0.44650516       1.85576772
H        1.16662642      -1.95050516       0.84776772
H        2.76962642      -2.48850516       1.33676772
H        2.32662642      -0.34650516      -0.76223228
H        3.34462642      -0.11350516       1.92276772
H        1.71062642       0.36649484       1.44076772
H        2.41978642      -2.07158516      -1.20917228
H        3.83451842      -1.27032716      -0.48775228
H        1.94125642      -0.68587616       2.86459772
C       -0.73737358       1.72849484      -2.44723228
C       -1.20837358      -1.07250516       0.05276772
C       -0.96537358      -0.39250516      -1.13523228
C       -1.47637358      -0.36250516       1.21576772
C       -1.00437358       0.99649484      -1.16923228
C       -1.50537358       1.02449484       1.18976772
C       -1.26537358       1.70049484       0.00076772
H       -1.19037358      -2.15450516       0.07076772
H       -0.75237358      -0.95350516      -2.03523228
H       -1.66937358      -0.89150516       2.13976772
H       -1.71637358       1.57849484       2.09176772
H       -1.37237358       2.61549484      -2.50523228
H       -1.01637358       1.06849484      -3.25923228
H       -1.29737358       2.77949484      -0.01323228
H        0.31720642       2.01617384      -2.57011228
