19
Properties=species:S:1:pos:R:3 pbc="F F F"
C        0.20529172      -0.22298143       1.33552018
C        0.09529172      -1.04398143       2.60452018
C        1.53529172       0.56801857       1.22852018
H        0.09829172      -0.87698143       0.46952018
H       -0.56570828       0.54301857       1.29052018
H        0.38129172      -0.40098143       3.43852018
H        2.38629172      -0.09998143       1.11252018
H        1.49129172       1.22101857       0.35752018
H        1.67629172       1.18401857       2.11652018
H       -0.93581828      -1.38697143       2.77531018
H        0.78423172      -1.90046143       2.56191018
C       -1.19070828       0.39301857      -1.83547982
C       -0.63570828       0.28201857      -3.24447982
H       -2.02270828       1.09001857      -1.79947982
H       -1.51770828      -0.58398143      -1.48147982
H       -0.40570828       0.76701857      -1.17947982
H        0.20329172      -0.40798143      -3.22147982
H       -0.28955828       1.27226857      -3.57552182
H       -1.39647828      -0.13515143      -3.92063982
