20
Properties=species:S:1:pos:R:3 pbc="F F F"
C        0.11640288       0.96300673      -2.14387098
C       -0.27659712       0.02500673      -3.27087098
C        0.50640288       2.33900673      -2.67787098
H       -0.69859712       1.04200673      -1.42587098
H        0.99140288       0.56100673      -1.62887098
H        0.21740288       0.33400673      -4.19087098
H       -1.35059712       0.12400673      -3.44087098
H        0.69640288       3.00500673      -1.83287098
H        1.42740288       2.25900673      -3.25587098
H       -0.02877712      -1.02824327      -3.07276098
H       -0.27930712       2.77118673      -3.31495098
C        1.16540288      -0.57499327       2.70712902
C       -0.15359712      -0.87599327       2.03212902
O       -0.94259712      -1.68299327       2.51312902
N       -0.40059712      -0.23799327       0.90212902
H       -1.28959712      -0.40599327       0.45512902
H        0.22040288       0.48600673       0.58112902
H        1.19840288      -1.10299327       3.66212902
H        1.21740288       0.49600673       2.90912902
H        2.02395288      -0.87559327       2.08862902
