20
Properties=species:S:1:pos:R:3 pbc="F F F"
C        1.62092092      -1.61213602      -0.97865898
C       -0.57307908       1.25486398      -1.21165898
C        0.45792092      -0.66813602      -0.97965898
C       -0.87907908      -0.88313602      -0.75065898
N        0.63892092       0.68286398      -1.23865898
N       -1.50507908       0.34786398      -0.89765898
H       -0.77407908       2.30286398      -1.40065898
H       -2.50307908       0.53886398      -0.82065898
H       -1.36207908      -1.81413602      -0.49565898
H        2.33092092      -1.25713602      -0.23165898
H        2.11192092      -1.55813602      -1.95165898
H        1.36684192      -2.65813602      -0.75208698
C        0.49092092       1.04886398       2.49234102
C       -0.26207908      -0.18213602       3.01334102
H        1.38092092       0.72686398       1.95134102
H       -0.15407908       1.60086398       1.80834102
H        0.77392092       1.69686398       3.32134102
H       -0.51807908      -0.78813602       2.14534102
H        0.38240592      -0.76944602       3.68394402
H       -1.19371008       0.06992398       3.54109802
