29
Properties=species:S:1:pos:R:3 pbc="F F F"
C       -0.67809894      -0.84908264       0.36675972
C       -1.68709894      -1.99908264       0.47275972
C       -0.83409894      -0.00908264      -0.86924028
C       -0.72709894       1.38191736      -0.79624028
C       -1.05609894      -0.60908264      -2.11124028
C       -0.84209894       2.16491736      -1.94824028
C       -1.17309894       0.16791736      -3.26524028
C       -1.06609894       1.55691736      -3.18424028
H       -0.74309894      -0.21808264       1.25575972
H        0.32790106      -1.27108264       0.32575972
H       -1.80109894      -2.51608264      -0.47824028
H       -0.53009894       1.86091736       0.15075972
H       -1.10009894      -1.68308264      -2.21624028
H       -0.75209894       3.24191736      -1.88524028
H       -1.33609894      -0.30708264      -4.22424028
H       -1.15209894       2.16091736      -4.07824028
H       -2.66493794      -1.61533564       0.79920872
H       -1.30877894      -2.74557564       1.18663872
C        2.31590106      -0.42608264       2.76975972
C        2.30090106       0.86691736       3.59675972
C        2.72190106      -1.70608264       3.49975972
H        1.32190106      -0.57708264       2.35175972
H        3.00390106      -0.28808264       1.93275972
H        3.24790106       0.98091736       4.12475972
H        1.98490106      -1.93808264       4.26575972
H        1.46546506       0.86088536       4.31230872
H        2.20807206       1.72920936       2.92012472
H        2.76303906      -2.53894564       2.78237172
H        3.70524406      -1.57179364       3.97410372
