23
Properties=species:S:1:pos:R:3 pbc="F F F"
C       -1.26108640      -2.44737739      -1.08737899
C        0.70391360      -1.19937739       0.05162101
C       -0.49208640      -1.84637739       0.05162101
C       -0.14008640      -1.07437739       2.08162101
N        0.89991360      -0.72337739       1.33162101
N       -0.99808640      -1.75937739       1.33262101
H        1.34791360      -1.05137739      -0.80537899
H        1.68891360      -0.17437739       1.65562101
H       -1.73108640      -3.37837739      -0.77037899
H       -0.55608640      -2.66937739      -1.86737899
H       -0.27008640      -0.83037739       3.12962101
H       -2.01298640      -1.75825939      -1.49940699
C        0.74891360       2.30362261      -0.91937899
C        1.14891360       3.42162261      -1.85537899
C       -0.69508640       2.64762261      -0.62637899
H        1.35491360       2.29962261      -0.01337899
H        0.80991360       1.34362261      -1.43337899
H        1.37491360       4.33162261      -1.29637899
H        2.00891360       3.08862261      -2.43637899
H       -0.73708640       3.49462261       0.06062101
H       -1.23708640       1.79362261      -0.21637899
H        0.24351360       3.56253261      -2.46397699
H       -1.07999640       2.93576261      -1.61573199
