18
Properties=species:S:1:pos:R:3 pbc="F F F"
C        0.91886903       1.86054532       1.58679266
C       -0.37913097       1.99054532       0.81279266
O       -0.76313097       3.07954532       0.38879266
N       -1.06913097       0.88054532       0.60879266
H       -1.96713097       0.95454532       0.15479266
H       -0.72313097      -0.03345468       0.88779266
H        1.73286903       1.95954532       0.87079266
H        0.98386903       0.87054532       2.04079266
H        0.99733903       2.62001532       2.37865266
C        1.72786903      -2.31145468      -0.69320734
C        0.26786903      -1.92145468      -0.79920734
O       -0.41113097      -1.73145468       0.20879266
N       -0.22813097      -1.78245468      -2.02220734
H        2.35186903      -1.42745468      -0.74920734
H        1.96686903      -2.95945468      -1.53320734
H       -1.21513097      -1.59345468      -2.10320734
H        0.36886903      -1.87445468      -2.85020734
H        1.95624903      -2.83089468       0.24914266
