16
Properties=species:S:1:pos:R:3 pbc="F F F"
C       -0.94379997       1.35982566      -0.28135543
C       -1.78479997       2.63382566      -0.16635543
H       -0.30579997       1.40382566      -1.16635543
H       -0.30879997       1.24882566       0.59764457
H       -1.57279997       0.46982566      -0.33535543
H       -2.48079997       2.51982566       0.66564457
H       -2.36726997       2.79566366      -1.08533543
H       -1.13498997       3.49665766       0.04164457
C        0.75720003      -2.05117434      -0.23435543
C        1.97320003      -1.94117434       0.67464457
H        0.17620003      -2.93917434       0.01464457
H        0.11820003      -1.18417434      -0.08635543
H        1.06720003      -2.09417434      -1.27935543
H        1.63420003      -1.96117434       1.70964457
H        2.65831003      -2.78444334       0.50282457
H        2.49490003      -0.98700534       0.50914457
