20
Properties=species:S:1:pos:R:3 pbc="F F F"
C        3.33533682      -0.86488204       1.36860780
C        2.12933682      -0.41988204       0.56260780
O        1.28633682      -1.28088204       0.22960780
O        2.00833682       0.79011796       0.27260780
H        3.97833682      -0.01188204       1.59160780
H        3.91333682      -1.57188204       0.77060780
H        3.03977682      -1.35652204       2.30718780
C       -2.50566318      -1.27188204       0.36060780
C       -1.54966318       0.74811796      -0.69439220
N       -1.40166318      -0.41388204      -0.07839220
N       -0.48966318       1.44811796      -1.03439220
N       -2.75666318       1.21311796      -0.96339220
H       -0.44266318      -0.74188204       0.06060780
H       -2.89366318      -1.84988204      -0.48239220
H       -3.31266318      -0.65688204       0.76460780
H        0.41833682       1.14611796      -0.67039220
H       -0.58066318       2.35011796      -1.46539220
H       -3.56866318       0.65511796      -0.76739220
H       -2.86466318       2.10211796      -1.42639220
H       -2.18558218      -1.95414204       1.16189780
