26
Properties=species:S:1:pos:R:3 pbc="F F F"
C       -1.80610039       3.74643502       0.99767140
C       -0.82710039       0.25943502       0.86067140
C       -1.58410039       2.30743502       0.64167140
C       -2.06010039       1.56943502      -0.39832860
N       -0.82010039       1.46343502       1.42467140
N       -1.55510039       0.29543502      -0.24932860
H       -0.26310039      -0.59556498       1.18067140
H       -1.69210039      -0.49856498      -0.87632860
H       -2.64510039       1.93643502      -1.22432860
H       -2.13710039       4.25943502       0.09567140
H       -0.86010039       4.18543502       1.30767140
H       -2.55181839       3.88643572       1.79410140
C        1.73089961      -2.05056498      -0.72632860
C        1.86189961      -2.50056498      -2.18232860
C        1.52989961      -3.24856498       0.19767140
C        3.01089961      -1.30156498      -0.31432860
H        0.89689961      -1.36456498      -0.61632860
H        2.64789961      -3.25456498      -2.25632860
H        2.16389961      -1.63856498      -2.77232860
H        2.32289961      -3.97756498       0.02667140
H        1.56489961      -2.91356498       1.23367140
H        0.55889961      -3.70856498       0.01567140
H        3.09189961      -0.37756498      -0.88832860
H        2.97489961      -1.04756498       0.74367140
H        3.89089961      -1.90656498      -0.50132860
H        0.92377961      -2.90600498      -2.58920860
