22
Properties=species:S:1:pos:R:3 pbc="F F F"
C       -1.29039358      -0.02433685      -0.28733634
C       -2.06639358      -1.35033685      -0.40933634
C       -0.70339358       0.38066315      -1.62933634
C       -2.12539358       1.09366315       0.30566366
H       -0.46139358      -0.19733685       0.39466366
H       -1.37539358      -2.08633685      -0.80833634
H       -1.49639358       0.59966315      -2.34633634
H       -0.08239358       1.26966315      -1.50333634
H       -0.08039358      -0.42533685      -2.01733634
H       -2.49639358       0.81866315       1.29266366
H       -1.51139358       1.98766315       0.41366366
H       -2.96839358       1.33066315      -0.34233634
H       -2.93251958      -1.26781685      -1.08240134
H       -2.39955358      -1.71325685       0.57417466
C        2.23160642      -0.06133685       1.00766366
C        3.76860642      -0.03633685       0.97666366
H        1.84560642       0.91266315       1.31766366
H        1.86460642      -0.28733685       0.00466366
H        1.86560642      -0.83833685       1.67866366
H        4.11260642      -1.03433685       0.71466366
H        4.20679642       0.25292315       1.94326266
H        4.11770642       0.65461315       0.19517966
