18
Properties=species:S:1:pos:R:3 pbc="F F F"
C       -2.89060844       0.25777763       1.07653285
C       -1.39760844       0.50177763       0.91453285
O       -0.95260844       1.06277763      -0.08446715
N       -0.61060844       0.09977763       1.91153285
H       -3.27260844       0.95077763       1.82753285
H       -3.03660844      -0.74722237       1.47353285
H        0.38039156       0.26677763       1.83753285
H       -1.00260844      -0.32622237       2.73953285
H       -3.45807844       0.34617663       0.13836285
C        1.67339156      -0.99022237      -0.87146715
C        1.23839156      -0.95822237      -2.32346715
O        2.58039156       0.07377763      -0.64146715
H        0.80639156      -0.89822237      -0.22046715
H        2.17039156      -1.94022237      -0.66546715
H        2.13539156      -1.04422237      -2.94146715
H        3.00139156      -0.05922237       0.22053285
H        0.74904156      -0.00064237      -2.55494715
H        0.57674156      -1.80726007      -2.55006715
