24
Properties=species:S:1:pos:R:3 pbc="F F F"
C       -0.28891607      -0.37245354      -2.36133557
C       -0.81191607       0.17654646      -3.68933557
O       -0.00691607      -1.75345354      -2.47833557
H        0.61608393       0.16654646      -2.07433557
H       -1.04191607      -0.22745354      -1.58533557
H       -1.62491607      -0.46645354      -4.02333557
H        0.40908393      -2.04645354      -1.65733557
H       -0.00997607       0.18107646      -4.44224557
H       -1.20708607       1.19299646      -3.54557557
C       -1.74291607       1.42454646       2.47366443
C        0.66008393      -1.24845354       1.22966443
C       -0.44791607      -0.63245354       1.81466443
C        1.65008393      -0.47445354       0.62366443
C       -0.57991607       0.75754646       1.79766443
C        1.52408393       0.91354646       0.60066443
C        0.41108393       1.52454646       1.18466443
H        0.73408393      -2.32245354       1.24666443
H       -1.19391607      -1.24845354       2.28366443
H        2.50608393      -0.95445354       0.17466443
H        2.29008393       1.52254646       0.13966443
H       -2.59491607       0.76254646       2.43366443
H       -2.00691607       2.32554646       1.91866443
H        0.32908393       2.60054646       1.16666443
H       -1.54863607       1.69221646       3.52276443
