26
Properties=species:S:1:pos:R:3 pbc="F F F"
C        0.36958411       2.38045874      -0.03774360
C        0.07058411       3.50145874       0.94525640
C       -0.28441589       2.61645874      -1.37174360
O       -1.49741589       2.90145874      -1.43174360
O        0.42558411       2.53145874      -2.37974360
H        1.43358411       2.25645874      -0.18374360
H        0.00558411       1.44045874       0.36725640
H        0.07058411       4.45445874       0.41625640
H        0.87129511       3.51520874       1.69935640
H       -0.90597889       3.33725874       1.42417640
C       -2.38541589      -2.10554126      -0.91174360
C       -0.97041589      -1.05954126       0.89225640
C       -1.09141589      -1.97754126      -0.14974360
C        0.21358411      -0.96554126       1.62325640
C       -0.00441589      -2.79854126      -0.45374360
C        1.29158411      -1.78554126       1.29525640
C        1.18358411      -2.69854126       0.25825640
O        2.47158411      -1.69154126       1.97125640
H       -1.79741589      -0.40654126       1.13425640
H        0.30758411      -0.24454126       2.42325640
H       -2.18641589      -2.13954126      -1.98374360
H       -2.97841589      -1.22654126      -0.69574360
H       -0.08641589      -3.51254126      -1.26274360
H        2.02758411      -3.31954126       0.00425640
H        3.14858411      -2.25654126       1.58325640
H       -2.97667789      -2.98487126      -0.61647360
