12
Properties=species:S:1:pos:R:3 pbc="F F F"
C       -0.24071585      -2.19320258      -0.92939854
O       -0.18771585      -1.53220258       0.33260146
H       -0.03071585      -0.58020258       0.19960146
H        0.75128415      -2.55020258      -1.20739854
H       -0.94185585      -3.02873258      -0.78697854
H       -0.62720585      -1.50705258      -1.69739854
C        0.14228415       2.47379742      -0.05839854
O        0.22628415       1.20779742       0.60960146
H        1.10628415       1.13579742       1.02560146
H        0.43528415       3.27579742       0.61760146
H        0.77062415       2.45368742      -0.96104854
H       -0.90297585       2.60639742      -0.37437854
