18
Properties=species:S:1:pos:R:3 pbc="F F F"
C        0.46064659       0.92800454      -0.58726764
C        0.58464659       1.29500454      -3.08126764
S       -0.33835341       0.38600454      -1.87526764
H        0.30964659       2.00300454      -0.47726764
H        0.08164659       0.43200454       0.29573236
H        1.52664659       0.71500454      -0.66626764
H        0.88064659       2.25300454      -2.65026764
H       -0.06135341       1.53200454      -3.92326764
H        1.49495659       0.75041164      -3.37239764
C       -0.60335341      -0.74099546       2.58473236
C       -0.53235341      -2.04199546       1.78273236
O        0.68064659      -0.37199546       3.04973236
H       -1.01135341       0.05900454       1.96773236
H       -1.27235341      -0.87399546       3.43773236
H        0.22864659      -1.93399546       1.00873236
H        0.60064659       0.46400454       3.53673236
H       -1.50516341      -2.23308246       1.30615236
H       -0.23699341      -2.86757646       2.44694236
