26
Properties=species:S:1:pos:R:3 pbc="F F F"
C       -2.04019902       3.12717089      -0.73576840
C       -0.83619902       1.30617089       0.50623160
C       -1.99219902       1.75217089      -0.12876840
C       -0.78319902       0.03917089       1.07823160
C       -3.10619902       0.91817089      -0.16876840
C       -1.90119902      -0.78982911       1.02623160
C       -3.06319902      -0.35082911       0.40123160
O       -1.84819902      -2.02782911       1.59023160
H        0.03480098       1.94817089       0.55523160
H        0.11580098      -0.30482911       1.56523160
H       -2.78919902       3.15617089      -1.52976840
H       -1.06919902       3.32517089      -1.18776840
H       -4.01719902       1.26117089      -0.64176840
H       -3.93019902      -0.99082911       0.36523160
H       -2.69719902      -2.52682911       1.58123160
H       -2.25509902       3.90817089       0.00845060
C        2.30080098       0.17617089      -0.98976840
C        2.50280098       0.02417089      -2.50176840
C        3.02380098      -0.89782911      -0.18676840
O        3.24280098      -2.01082911      -0.71376840
O        3.35580098      -0.63182911       0.98923160
H        2.60380098       1.17517089      -0.66876840
H        1.23880098       0.06317089      -0.78276840
H        2.57280098      -1.03182911      -2.76076840
H        3.41972998       0.53457989      -2.83150140
H        1.61663598       0.40344089      -3.03173640
