18
Properties=species:S:1:pos:R:3 pbc="F F F"
C       -0.51305108      -0.35717662       2.08941169
C       -1.35305108       0.95482338       1.81841169
O       -0.68805108      -1.38017662       1.10241169
H        0.54294892      -0.09617662       2.16341169
H       -0.80905108      -0.76017662       3.05941169
H       -1.08505108       1.34182338       0.83841169
H       -0.16205108      -2.14517662       1.38441169
H       -1.15628108       1.70699338       2.59657169
H       -2.42816108       0.72293338       1.83731169
C        1.12694892       1.05282338      -2.35458831
C        0.64994892       0.24182338      -1.21758831
O        1.28794892       0.25382338      -0.15358831
N       -0.39805108      -0.54217662      -1.43858831
H        0.32694892       1.20582338      -3.07958831
H        1.90594892       0.48382338      -2.86258831
H       -0.73705108      -1.06417662      -0.64058831
H       -0.87605108      -0.55117662      -2.32258831
H        1.55043892       2.01903338      -2.04299831
