38
Properties=species:S:1:pos:R:3 pbc="F F F"
C        2.33792207      -1.08772751       0.61850077
C        3.19192207      -2.13572751       1.35050077
C        1.29292207      -0.45272751       1.48450077
C        1.59792207       0.65527249       2.26650077
C        0.03192207      -1.01272751       1.57350077
C        0.65792207       1.19927249       3.12150077
C       -0.92907793      -0.44472751       2.38650077
C       -0.61107793       0.64727249       3.17950077
O       -1.56607793       1.14427249       4.00950077
H        2.98492207      -0.30372751       0.23450077
H        1.84592207      -1.55872751      -0.23449923
H        2.52692207      -2.89172751       1.75150077
H        2.58792207       1.08927249       2.21750077
H       -0.20207793      -1.89072751       0.98850077
H        0.90992207       2.04427249       3.74350077
H       -1.91707793      -0.87072751       2.44550077
H       -1.24407793       1.89927249       4.52750077
H        3.76870207      -1.68636351       2.17232077
H        3.87528207      -2.63350751       0.64677077
C        1.01592207       1.85527249      -1.36149923
C        1.42492207       2.74727249      -2.54149923
C        0.02592207       0.77827249      -1.75549923
C        0.40892207      -0.27872751      -2.58449923
C       -1.31507793       0.90327249      -1.39249923
C       -0.53007793      -1.23472751      -2.99049923
C       -2.26307793      -0.05772751      -1.79049923
C       -1.86207793      -1.12572751      -2.57549923
O       -2.80507793      -2.02872751      -2.98649923
H        1.90992207       1.37527249      -0.96549923
H        0.59492207       2.47527249      -0.56949923
H        1.81292207       2.08127249      -3.31349923
H        1.43692207      -0.36972751      -2.90649923
H       -1.63007793       1.74227249      -0.79349923
H       -0.22607793      -2.05272751      -3.62749923
H       -3.29607793       0.03227249      -1.49049923
H       -2.49407793      -2.53772751      -3.76449923
H        2.23435207       3.43829249      -2.26343923
H        0.56838207       3.27255249      -2.98916923
