27
Properties=species:S:1:pos:R:3 pbc="F F F"
C        2.98536890       1.84917917      -0.79465456
C        0.64736890       1.00717917       0.06534544
C        1.58636890       2.03817917      -0.28665456
C       -0.55863110       1.64617917       0.45434544
C        0.91236890       3.21017917      -0.11465456
C       -0.40563110      -1.12782083       0.48934544
C       -1.57363110      -0.45682083       0.86634544
C        0.72336890      -0.39782083       0.08134544
C       -1.67263110       0.92017917       0.85734544
N       -0.36563110       2.99017917       0.33534544
H       -0.36363110      -2.20282083       0.53034544
H       -2.43363110      -1.03582083       1.16434544
H        1.63236890      -0.90382083      -0.20865456
H       -2.58163110       1.41917917       1.14834544
H        3.00136890       2.16917917      -1.83665456
H        3.23136890       0.78617917      -0.77865456
H        1.32036890       4.19117917      -0.33465456
H       -1.09763110       3.70317917       0.40934544
H        3.76312890       2.40709117      -0.25260456
C       -0.89463110      -4.83582083      -0.16965456
C       -1.30863110      -5.59982083      -1.42765456
H       -0.05563110      -4.17982083      -0.39965456
H       -1.73763110      -4.24982083       0.19434544
H       -0.59563110      -5.53082083       0.61034544
H       -2.09863110      -6.29982083      -1.15765456
H       -0.45286210      -6.14341783      -1.85445456
H       -1.70644710      -4.86382383      -2.14183456
