17
Properties=species:S:1:pos:R:3 pbc="F F F"
C        1.25772102      -0.47566599      -2.11564703
C        1.45972102      -1.94966599      -1.79464703
H        1.59072102      -0.26266599      -3.12864703
H        0.19572102      -0.23166599      -2.06264703
H        1.80472102       0.14633401      -1.40564703
H        0.95472102      -2.52466599      -2.57064703
H        2.53133102      -2.19795699      -1.79176703
H        0.99641102      -2.19758399      -0.82827703
C       -0.02327898       0.38733401       2.26135297
C       -0.74727898       0.58133401       0.94935297
O       -1.63727898      -0.18966599       0.59835297
N       -0.37927898       1.62133401       0.21535297
H        0.25472102       1.36533401       2.66135297
H        0.89372102      -0.16866599       2.06535297
H       -0.86727898       1.80133401      -0.64764703
H        0.33672102       2.25133401       0.54735297
H       -0.63261898      -0.14340099       3.00770297
