16
Properties=species:S:1:pos:R:3 pbc="F F F"
C       -1.65991083      -0.00051333      -0.19206686
C       -2.81291083       1.00548667      -0.20706686
H       -0.87091083       0.31748667      -0.87806686
H       -1.23591083      -0.07451333       0.80893314
H       -2.00291083      -0.99951333      -0.46706686
H       -3.64391083       0.58648667       0.35993314
H       -3.14927083       1.19646667      -1.23681686
H       -2.49039083       1.94438667       0.26668314
C        2.09408917       0.23948667       0.08593314
C        2.37908917      -1.24251333       0.30393314
H        1.68108917       0.39848667      -0.91106686
H        1.37508917       0.58748667       0.82893314
H        3.00308917       0.82948667       0.20093314
H        2.83608917      -1.35851333       1.28393314
H        3.05277917      -1.63454433      -0.47224686
H        1.44091917      -1.81639833       0.32634314
