23
Properties=species:S:1:pos:R:3 pbc="F F F"
C        1.50473990      -2.22672830      -1.29284487
C        0.16673990      -0.27972830      -0.33584487
C        1.36673990      -0.99772830      -0.41584487
C        0.06373990       0.84927170       0.48015513
C        1.15673990       1.26327170       1.23915513
C        2.44973990      -0.57572830       0.35815513
C        2.35073990       0.55027170       1.17815513
H       -0.71226010      -0.59472830      -0.87584487
H       -0.87226010       1.38427170       0.54015513
H        1.43273990      -3.11372830      -0.66384487
H        2.48473990      -2.20872830      -1.74084487
H        1.07773990       2.13727170       1.87315513
H        3.37673990      -1.12372830       0.33415513
H        3.19873990       0.86427170       1.77215513
H        0.77097390      -2.30317730      -2.10877587
C       -3.55326010       0.32727170      -0.94284487
C       -4.40826010       1.13327170       0.03315513
H       -4.06226010       0.24527170      -1.89184487
H       -2.61226010       0.85027170      -1.10484487
H       -3.35126010      -0.66272830      -0.54384487
H       -3.81426010       1.31727170       0.92915513
H       -5.32389310       0.59428670       0.31795513
H       -4.67256810       2.09622170      -0.42822487
