19
Properties=species:S:1:pos:R:3 pbc="F F F"
C        0.25750056       1.19410770      -0.24871520
C        1.64250056       1.62110770      -0.76871520
C       -0.74349944       2.35010770      -0.12571520
H       -0.14549944       0.45110770      -0.93571520
H        0.36150056       0.73810770       0.73628480
H        1.98150056       2.48510770      -0.19971520
H       -0.79349944       2.84010770      -1.09471520
H        1.61936056       1.90098840      -1.83226520
H        2.36364056       0.82311240      -0.53815520
H       -1.75023944       1.95013150       0.06532480
H       -0.47110944       3.12422970       0.60677480
C       -0.54949944      -2.25989230      -0.18271520
C       -0.59049944      -2.82089230       1.30528480
H       -1.36149944      -1.54289230      -0.32171520
H        0.40350056      -1.75589230      -0.34371520
H       -0.67349944      -3.07689230      -0.89171520
H        0.19650056      -3.56889230       1.37128480
H       -1.54530944      -3.31086730       1.54668480
H       -0.38198944      -2.06478930       2.07653480
