20
Properties=species:S:1:pos:R:3 pbc="F F F"
C        0.85353756       1.39621210       0.39502013
C        2.15253756       2.03621210      -0.02197987
C        0.67153756       1.41221210       1.91702013
H        0.01053756       1.88921210      -0.08597987
H        0.87653756       0.35721210       0.07302013
H        2.95053756       1.59521210       0.58202013
H        2.12453756       3.10321210       0.20002013
H        1.55553756       0.97321210       2.38302013
H        0.54153756       2.43921210       2.26502013
H        2.40691756       1.87506210      -1.07995987
H       -0.22053244       0.81449210       2.15566013
C       -1.19346244      -1.25378790      -1.21697987
C       -0.48646244      -2.59778790      -1.05197987
O       -1.76146244      -0.83578790       0.00002013
H       -0.48046244      -0.50578790      -1.56297987
H       -1.97846244      -1.34578790      -1.96697987
H       -0.09946244      -2.86778790      -2.03597987
H       -2.72446244      -0.98578790      -0.07097987
H       -1.18788244      -3.38181790      -0.73055987
H        0.37929756      -2.52719790      -0.37708987
