17
Properties=species:S:1:pos:R:3 pbc="F F F"
C        0.06894312       1.94970627       1.87538585
O        0.81594312       0.74370627       1.79438585
H        1.55494312       0.86570627       1.13838585
H       -0.99505688       1.71370627       1.81938585
H        0.27859312       2.45056627       2.83203585
H        0.32798312       2.60559627       1.03116585
C       -0.40805688      -0.87629373      -0.75661415
C       -1.51105688      -0.46829373      -1.73861415
C        0.88694312      -1.56129373      -1.42261415
H       -0.07305688       0.02670627      -0.27261415
H       -0.83105688      -1.54429373      -0.00261415
H       -2.07705688      -1.36329373      -1.99861415
H       -1.02905688      -0.10029373      -2.64561415
H        1.33894312      -2.16929373      -0.63161415
H        0.53394312      -2.27029373      -2.17761415
H       -2.19261688       0.31893627      -1.38400615
H        1.69033312      -0.94440373      -1.85156915
