33
Properties=species:S:1:pos:R:3 pbc="F F F"
C        0.94335423       2.16145928      -0.68903979
C        1.88035423       3.34045928      -0.95603979
C        1.28135423       0.91345928      -1.46903979
C        2.26635423       0.03345928      -1.01403979
C        0.57535423       0.60245928      -2.63403979
C        2.55635423      -1.13454072      -1.72703979
C        0.85835423      -0.56254072      -3.34603979
C        1.84735423      -1.43354072      -2.89303979
H        0.97935423       1.92145928       0.37496021
H       -0.08264577       2.45645928      -0.91703979
H        2.89235423       3.04445928      -0.67403979
H        2.81035423       0.25145928      -0.10703979
H       -0.19964577       1.26645928      -2.99003979
H        3.32335423      -1.80954072      -1.37503979
H        0.29935423      -0.80654072      -4.23603979
H        2.06535423      -2.34054072      -3.44103979
H        1.57140623       4.19646928      -0.33814379
H        1.89904223       3.60280928      -2.02413279
C       -4.00964577       0.00845928       2.80196021
C       -0.94364577      -0.55854072       0.64296021
C       -0.05664577      -1.13254072       1.54596021
C       -2.21764577      -0.18154072       1.05696021
C       -2.62564577      -0.38654072       2.37096021
C       -0.45564577      -1.34554072       2.86196021
C       -1.73964577      -0.97254072       3.27296021
H       -0.65464577      -0.42654072      -0.38703979
H        0.93535423      -1.42154072       1.22396021
H       -2.89264577       0.28245928       0.35296021
H        0.24035423      -1.78054072       3.56096021
H       -4.32464577       0.87945928       2.22496021
H       -3.97764577       0.31745928       3.84796021
H       -2.03764577      -1.12054072       4.29696021
H       -4.75700577      -0.79049072       2.68731311
