26
Properties=species:S:1:pos:R:3 pbc="F F F"
C        1.68904379       0.85096191      -0.22798879
C        2.96004379       0.01096191      -0.03098879
C        1.54404379       1.86696191       0.88401121
C        1.67904379       1.53196191      -1.59398879
H        0.83804379       0.17596191      -0.17598879
H        2.86104379      -0.52003809       0.91701121
H        2.29304379       2.65496191       0.79501121
H        0.55404379       2.31996191       0.85001121
H        1.65004379       1.37396191       1.85101121
H        2.49804379       2.24496191      -1.65998879
H        1.85004379       0.76896191      -2.33298879
H        3.86958379       0.62929191      -0.01077879
H        3.07454379      -0.75644809      -0.81071879
H        0.73540379       2.03829191      -1.84533879
C       -1.73995621      -0.87103809      -0.10298879
C       -3.04095621      -1.57603809      -0.52598879
C       -2.03795621       0.20296191       0.93301121
O       -0.86995621      -1.79303809       0.52801121
H       -1.24495621      -0.43303809      -0.96998879
H       -3.52595621      -1.95803809       0.37401121
H       -2.62995621      -0.20703809       1.75201121
H       -1.10395621       0.59396191       1.33401121
H       -2.58095621       1.02596191       0.46901121
H       -1.34995621      -2.24403809       1.23201121
H       -2.81059621      -2.41155809      -1.20336879
H       -3.72039621      -0.86767809      -1.02255879
