18
Properties=species:S:1:pos:R:3 pbc="F F F"
C        0.87127705      -1.69016078       1.13359296
C        1.08327705      -0.68316078       2.26559296
C        2.08027705      -1.91316078       0.22859296
H        0.62727705      -2.65516078       1.57759296
H        0.01727705      -1.39116078       0.52859296
H        1.10127705       0.31483922       1.82559296
H        2.95827705      -2.17816078       0.81659296
H        1.85727705      -2.76316078      -0.41840704
H        2.00904205      -0.90250078       2.81772396
H        0.23318705      -0.70209978       2.96343896
H        2.30830005      -1.04926378      -0.41303604
C       -0.52072295       2.14883922      -1.71340704
C       -1.05272295       1.01083922      -0.85440704
O       -1.21772295       1.20683922       0.35659296
O       -1.26072295      -0.10416078      -1.39640704
H       -1.06472295       2.19283922      -2.65940704
H        0.52327705       1.92783922      -1.94540704
H       -0.56158195       3.13088022      -1.21951904
