16
Properties=species:S:1:pos:R:3 pbc="F F F"
C        0.47819198      -0.67647674       1.41244748
C        0.45519198      -1.08247674       2.88944748
H       -0.49680802      -0.28847674       1.11544748
H        1.23119198       0.09752326       1.26344748
H        0.74519198      -1.52247674       0.77944748
H        1.42119198      -1.51447674       3.13944748
H       -0.33675802      -1.81939274       3.08886748
H        0.28710198      -0.20160274       3.52647748
C       -0.26180802       0.14552326      -2.20255252
C       -0.67680802       1.61352326      -2.10355252
H        0.31619198      -0.03747674      -3.10855252
H        0.36819198      -0.10847674      -1.34955252
H       -1.13980802      -0.50047674      -2.19455252
H       -1.12280802       1.76952326      -1.12155252
H       -1.41172802       1.85609526      -2.88525452
H        0.20119198       2.26860526      -2.20350452
