16
Properties=species:S:1:pos:R:3 pbc="F F F"
C        0.85220089       0.48096004      -2.02966201
C        1.11220089      -1.01903996      -1.97566201
H        1.54020089       0.94996004      -2.73566201
H       -0.17479911       0.66196004      -2.35466201
H        0.98120089       0.93696004      -1.04766201
H        0.42320089      -1.46203996      -1.25866201
H        2.14221589      -1.25023896      -1.66644301
H        0.91156689      -1.44731696      -2.96880101
C       -0.64079911       0.51696004       1.36533799
C       -1.31479911       0.01696004       2.64033799
H       -0.95779911      -0.08103996       0.51033799
H       -0.90379911       1.55596004       1.18833799
H        0.44320089       0.47496004       1.46533799
H       -2.39279911       0.05496004       2.48333799
H       -1.02416111      -1.01562596       2.88384799
H       -1.09312911       0.67106904       3.49649799
