22
Properties=species:S:1:pos:R:3 pbc="F F F"
C        1.30044648      -0.34742470       0.41600321
C        1.19144648      -1.05042470       1.74500321
C       -0.35455352       1.46757530       0.74600321
N        0.06844648       0.37957530       0.10700321
N        0.33744648       1.99157530       1.74800321
N       -1.48355352       2.03557530       0.37600321
H        2.14744648       0.34157530       0.43600321
H        1.49744648      -1.08642470      -0.36199679
H        0.98044648      -0.34942470       2.55000321
H        2.16144648      -1.50142470       1.94600321
H       -0.48855352       0.01457530      -0.65599679
H        1.22344648       1.59557530       2.00500321
H        0.00344648       2.81757530       2.22000321
H       -2.00755352       1.66457530      -0.39999679
H       -1.81555352       2.86057530       0.84900321
H        0.42345778      -1.83788470       1.73490321
C       -0.30055352      -2.28742470      -3.07399679
O       -0.57655352      -1.87042470      -1.74599679
H       -1.20855352      -2.50942470      -1.36099679
H        0.29444648      -1.51442470      -3.56199679
H        0.27231368      -3.22646470      -3.06970679
H       -1.24416392      -2.39130470      -3.62970279
