26
Properties=species:S:1:pos:R:3 pbc="F F F"
C        0.31123493       1.39465236      -0.94000150
C        0.05323493       2.68665236      -1.70300150
C        2.40323493       0.32065236      -0.25700150
N        1.70023493       0.94965236      -1.16300150
N        1.83723493      -0.13334764       0.86699850
N        3.68023493       0.12665236      -0.52000150
H        0.11923493       1.58465236       0.11799850
H       -0.38076507       0.63365236      -1.30000150
H       -0.98376507       2.98965236      -1.55500150
H        0.20223493       2.48465236      -2.76300150
H        2.18223493       1.28765236      -1.99900150
H        0.82623493      -0.05634764       1.01999850
H        2.39023493      -0.61934764       1.54999850
H        4.07323493       0.49865236      -1.39200150
H        4.27423493      -0.35634764       0.13099850
H        0.72229493       3.49649236      -1.37665150
C       -1.70976507      -1.69034764      -0.09400150
C       -2.88876507      -1.32334764      -1.01800150
C       -1.80776507      -0.98634764       1.24699850
O       -2.88776507      -1.01034764       1.87299850
O       -0.79076507      -0.37034764       1.65999850
H       -1.70076507      -2.76434764       0.06099850
H       -0.76876507      -1.43334764      -0.58500150
H       -2.80876507      -0.26834764      -1.28800150
H       -3.82976507      -1.49834764      -0.49400150
H       -2.87139507      -1.95679764      -1.91713150
