18
Properties=species:S:1:pos:R:3 pbc="F F F"
C        0.68356040      -1.36475532       0.75972462
C        0.95756040      -1.18775532       2.26072462
S        2.09656040      -1.08675532      -0.31627538
H        0.34556040      -2.39175532       0.59772462
H       -0.12143960      -0.69775532       0.46272462
H        1.24556040      -0.15475532       2.45672462
H        1.48856040      -1.38275532      -1.47427538
H        1.73284540      -1.89392532       2.59277462
H        0.02813040      -1.41542532       2.80325462
C       -0.89843960       2.22624468      -1.40427538
C       -1.60743960       1.18324468      -0.57727538
O       -2.04943960       0.16424468      -1.09927538
N       -1.64543960       1.38024468       0.72472462
H        0.16956040       2.17524468      -1.19127538
H       -1.26543960       3.20624468      -1.09927538
H       -2.22743960       0.76924468       1.28672462
H       -1.30643960       2.26224468       1.10372462
H       -1.07403960       2.09022468      -2.48161638
