23
Properties=species:S:1:pos:R:3 pbc="F F F"
C        3.06838336       0.87400395       1.03314817
C        4.07038336       0.40700395      -0.02985183
C        2.59438336      -0.18799605       2.03514817
H        3.52638336       1.69000395       1.59514817
H        2.19438336       1.28400395       0.52514817
H        4.95738336       0.01800395       0.47214817
H        2.11438336      -1.00599605       1.50714817
H        4.38743336       1.25647395      -0.65265183
H        3.64758336      -0.41199605      -0.63026183
H        3.44345336      -0.61289605       2.59061817
H        1.85401336       0.24887395       2.72144817
C       -3.85261664      -0.82199605      -0.40385183
C       -0.26161664      -0.38099605      -0.22985183
C       -2.43861664      -0.34699605      -0.51085183
C       -1.91661664       0.71800395      -1.16985183
N       -1.38361664      -1.03199605       0.05714817
N       -0.55661664       0.68300395      -0.96785183
H        0.73138336      -0.71199605       0.02314817
H        0.12438336       1.32200395      -1.37185183
H       -2.46961664       1.46500395      -1.70685183
H       -4.52961664       0.02600395      -0.49785183
H       -3.98061664      -1.23299605       0.59914817
H       -4.09741664      -1.59527605      -1.14689183
