26
Properties=species:S:1:pos:R:3 pbc="F F F"
C        1.18776731      -1.28220128       2.44082158
C        1.15476731      -2.34120128       1.33782158
C        2.08776731      -0.07520128       2.15282158
H        0.17376731      -0.91220128       2.58982158
H        1.52376731      -1.73420128       3.37182158
H        2.15676731      -2.72820128       1.15682158
H        0.82276731      -1.87020128       0.41482158
H        1.77076731       0.38179872       1.21082158
H        1.94976731       0.66079872       2.95282158
H        0.46859731      -3.16632128       1.57937158
H        3.14889731      -0.35921128       2.09498158
C        0.30276731       2.77979872      -1.21117842
C       -1.63223269      -0.11820128       0.24982158
C       -1.05723269       1.12279872       0.09582158
C       -1.49423269      -1.06820128      -0.73717842
C       -0.29923269       1.42479872      -1.03617842
C       -0.74523269      -0.77220128      -1.88517842
C       -0.15223269       0.46779872      -2.02517842
H       -2.21023269      -0.34220128       1.13182158
H       -1.19323269       1.86879872       0.86782158
H       -1.95523269      -2.04020128      -0.62617842
H       -0.63723269      -1.51520128      -2.66417842
H       -0.34423269       3.50979872      -0.72417842
H        0.31076731       3.02379872      -2.27417842
H        0.40976731       0.68979872      -2.91917842
H        1.31786731       2.88893872      -0.80171842
