24
Properties=species:S:1:pos:R:3 pbc="F F F"
C       -0.36249516       2.83949374       1.41351178
C        0.61850484       0.70049374       0.47651178
C       -0.28149516       1.76149374       0.35451178
C        0.70750484      -0.27850626      -0.51048822
C       -0.10249516      -0.19950626      -1.63848822
C       -1.08149516       1.83249374      -0.78748822
C       -0.99349516       0.85849374      -1.78148822
O       -0.01249516      -1.15750626      -2.60448822
H        1.27350484       0.64749374       1.33551178
H        1.44350484      -1.06250626      -0.43948822
H       -0.97249516       3.64849374       1.01151178
H        0.63850484       3.23849374       1.55851178
H       -1.79049516       2.64349374      -0.89848822
H        0.58550484      -1.86750626      -2.34948822
H       -1.62649516       0.90749374      -2.65648822
H       -0.79215616       2.53074274       2.37791008
C        0.19950484      -2.42750626       1.84851178
C        1.09250484      -3.05050626       2.90851178
H       -0.02849516      -1.39050626       2.06251178
H        0.69350484      -2.52450626       0.88751178
H       -0.73849516      -2.98150626       1.77551178
H        1.55950484      -3.93750626       2.47451178
H        0.48940484      -3.38683626       3.76475578
H        1.88784284      -2.35897026       3.22349708
