16
Properties=species:S:1:pos:R:3 pbc="F F F"
C        1.40470346       1.07136485      -0.90442486
C        2.76770346       0.82136485      -0.26242486
H        1.08570346       0.19336485      -1.46842486
H        0.68270346       1.28536485      -0.11742486
H        1.43270346       1.94136485      -1.55942486
H        3.05570346       1.71836485       0.28357514
H        3.54023646       0.57052385      -1.00422486
H        2.68897246      -0.01389415       0.44901514
C       -1.66629654      -0.33063515       0.74357514
C       -2.49929654      -1.56763515       0.42657514
H       -0.99329654      -0.51563515       1.58257514
H       -1.08729654      -0.07163515      -0.14042486
H       -2.30529654       0.52236485       0.97557514
H       -3.25129654      -1.26163515      -0.30342486
H       -3.03243654      -1.94578415       1.31131514
H       -1.89759154      -2.35674415      -0.04803486
