17
Properties=species:S:1:pos:R:3 pbc="F F F"
C       -0.86598241      -0.03004528      -1.18075773
C       -1.58898241      -0.35304528      -2.50075773
S       -0.63698241      -1.40404528      -0.06575773
H        0.11301759       0.34795472      -1.44775773
H       -1.40298241       0.76695472      -0.65975773
H       -1.72898241       0.57695472      -3.05575773
H        0.29201759      -0.84204528       0.71324227
H       -2.57407241      -0.79010528      -2.28033773
H       -0.99075241      -1.02361528      -3.13515773
C        1.17801759       1.37295472       1.78824227
C        2.56701759       1.99195472       1.94824227
H        1.27301759       0.33095472       1.48824227
H        0.65301759       1.42495472       2.74224227
H        0.58401759       1.92395472       1.05824227
H        2.45701759       3.04295472       2.21024227
H        3.15047759       1.89459472       1.02082227
H        3.06172759       1.47254472       2.78220227
