22
Properties=species:S:1:pos:R:3 pbc="F F F"
C        1.90105004       0.44480938      -1.55730233
C        1.26205004      -0.54319062      -2.52530233
C        2.20605004      -0.21619062      -0.22230233
O        2.44405004      -1.44419062      -0.20130233
O        2.20005004       0.48780938       0.81069767
H        2.82905004       0.83080938      -1.98530233
H        1.22405004       1.28080938      -1.39530233
H        0.39305004      -0.97919062      -2.04830233
H        1.96905004      -1.34819062      -2.73030233
H        0.93589504      -0.12415662      -3.48865233
C       -1.61394996       0.88880938      -0.06230233
C       -2.91194996       1.17080938      -0.80730233
C       -1.82194996       0.01080938       1.15569767
O       -2.94494996      -0.35619062       1.49569767
N       -0.73294996      -0.34019062       1.82569767
H       -0.91194996       0.40880938      -0.73830233
H       -1.17094996       1.82880938       0.26969767
H       -3.58694996       1.72180938      -0.15030233
H       -3.37994996       0.21780938      -1.06330233
H       -0.83594996      -0.91919062       2.64469767
H        0.18405004      -0.01819062       1.52969767
H       -2.77152896       1.73825438      -1.73912233
