27
Properties=species:S:1:pos:R:3 pbc="F F F"
C        0.30584865      -2.40786640       1.33905971
C        0.23484865      -0.05286640       0.44905971
C        0.97384865      -1.20486640       0.71005971
C        0.82484865       1.06413360      -0.13194029
C        2.17684865       1.04013360      -0.45794029
C        2.33084865      -1.22386640       0.37305971
C        2.93584865      -0.10586640      -0.21094029
O        2.73884865       2.14613360      -1.02394029
H       -0.80515135      -0.02986640       0.73005971
H        0.23084865       1.94713360      -0.32994029
H        0.81084865      -3.30886640       0.99505971
H       -0.72515135      -2.46086640       0.98805971
H        2.92284865      -2.11086640       0.56105971
H        2.09384865       2.84313360      -1.18594029
H        3.98384865      -0.12186640      -0.47594029
H        0.30226065      -2.41073640       2.43904971
C       -3.44715135       0.45613360      -0.49794029
C       -4.72715135       1.04813360       0.10405971
C       -3.38615135      -1.06686640      -0.45394029
H       -3.34515135       0.78813360      -1.53194029
H       -2.58515135       0.82913360       0.04205971
H       -4.94015135       0.47613360       0.99305971
H       -4.19515135      -1.50086640      -1.04094029
H       -2.43615135      -1.40186640      -0.86994029
H       -3.46015135      -1.41486640       0.57805971
H       -4.57192935       2.09980360       0.38673971
H       -5.57116235       0.95077360      -0.59463029
