27
Properties=species:S:1:pos:R:3 pbc="F F F"
C       -1.74881480      -4.07697836      -0.07579681
C       -1.42181480      -4.81697836      -1.38779681
H       -2.70281480      -4.41997836       0.32620319
H       -0.97081480      -4.24697836       0.66620319
H       -1.79581480      -3.00197836      -0.23679681
H       -0.48781480      -4.41497836      -1.78079681
H       -2.22100480      -4.64853836      -2.12462881
H       -1.28856480      -5.88941836      -1.18257281
C        3.06618520       2.09402164      -0.37979681
C       -0.56381480       1.23602164       0.01720319
C        0.80618520       0.93602164       0.22520319
C        1.57718520       1.95602164      -0.41779681
C        0.68418520       2.80002164      -0.97879681
C       -1.23281480      -0.70197836       1.21120319
C       -1.58081480       0.44402164       0.51620319
C        0.11418520      -1.03097836       1.42220319
C        1.13918520      -0.22097836       0.93420319
N       -0.59381480       2.38302164      -0.72579681
H       -2.00881480      -1.33497836       1.61920319
H       -2.59281480       0.74802164       0.39020319
H        0.35518520      -1.92697836       1.97820319
H        2.17418520      -0.48697836       1.09320319
H       -1.42381480       2.89202164      -1.00479681
H        0.95218520       3.70802164      -1.50879681
H        3.39018520       2.84902164      -1.09779681
H        3.52218520       1.13702164      -0.63579681
H        3.35220520       2.38725164       0.64109019
