16
Properties=species:S:1:pos:R:3 pbc="F F F"
C        2.15104276       0.11037594       0.41639469
C        2.44404276       1.07137594      -0.71760531
H        2.26704276      -0.93262406       0.13039469
H        2.83104276       0.30937594       1.24239469
H        1.14404276       0.26337594       0.78639469
H        3.49404276       0.99637594      -0.99560531
H        1.80588276       0.79736594      -1.57064331
H        2.23801276       2.09861594      -0.38244631
C       -1.54395724      -0.70862406      -0.03560531
C       -3.05295724      -0.47862406       0.32739469
H       -1.37595724      -0.50062406      -1.09160531
H       -0.94495724      -0.02162406       0.55639469
H       -1.24595724      -1.73062406       0.17639469
H       -3.30695724       0.55037594       0.07039469
H       -3.71437724      -1.16305406      -0.22403231
H       -3.17006724      -0.60144406       1.41422469
