27
Properties=species:S:1:pos:R:3 pbc="F F F"
C        2.95694868       1.01310059      -2.49752522
C        3.18094868       2.15810059      -3.48052522
H        3.15894868       0.04910059      -2.96452522
H        3.60194868       1.16510059      -1.63552522
H        1.93694868       1.05010059      -2.14052522
H        2.86894868       3.08810059      -3.00652522
H        2.59705568       1.99209859      -4.39786522
H        4.24687568       2.25006559      -3.73614522
C        1.20794868      -2.44289941      -0.18852522
C       -0.42605132      -0.48089941       0.33847478
C        0.24494868      -1.70589941       0.66947478
C       -1.26805132      -0.15189941       1.43247478
C       -0.21105132      -2.07389941       1.89447478
C       -0.39505132       0.37410059      -0.76952522
C       -1.18505132       1.51910059      -0.75952522
C       -2.00805132       1.81910059       0.33847478
C       -2.05605132       0.99010059       1.44747478
N       -1.11505132      -1.14589941       2.36047478
H        0.18194868       0.10210059      -1.63652522
H       -1.17905132       2.18410059      -1.61452522
H       -2.61605132       2.71510059       0.31647478
H        1.83594868      -3.08689941       0.43047478
H        1.85294868      -1.71689941      -0.68452522
H        0.09494868      -2.96989941       2.42747478
H       -1.57905132      -1.20489941       3.26147478
H       -2.69005132       1.21910059       2.29347478
H        0.68852068      -3.04456941      -0.94891522
