20
Properties=species:S:1:pos:R:3 pbc="F F F"
C       -0.33580837      -0.90069981       0.18082913
C       -0.67080837      -2.30869981       0.65882913
C       -0.77880837      -0.16969981      -2.45317087
S        0.49819163      -0.86569981      -1.41417087
H       -1.21480837      -0.28969981       0.13882913
H        0.35119163      -0.47969981       0.90882913
H       -1.06380837      -2.25169981       1.67482913
H        0.26119163      -2.87269981       0.69982913
H       -1.04280837       0.82530019      -2.09317087
H       -0.41280837      -0.09469981      -3.47717087
H       -1.66280837      -0.80769981      -2.43317087
H       -1.38440437      -2.85396781       0.02364213
C        0.41719163       1.99230019       1.80782913
C        0.36019163       3.14630019       2.80182913
H        1.18519163       2.17630019       1.05482913
H        0.66019163       1.07830019       2.35082913
H       -0.54480837       1.87630019       1.30882913
H       -0.37680837       2.91430019       3.56782913
H        0.06799863       4.06749919       2.27645813
H        1.34353463       3.28058919       3.27617313
