23
Properties=species:S:1:pos:R:3 pbc="F F F"
C        2.17974437       1.02747555       0.28460644
C        3.54174437       0.97947555       0.97360644
H        2.08974437       1.92747555      -0.32339356
H        2.07374437       0.15347555      -0.35839356
H        1.38674437       1.01347555       1.02960644
H        3.57274437       0.09447555       1.61160644
H        3.70683437       1.89505555       1.56051544
H        4.35173437       0.91928555       0.23178444
C       -1.82425563      -0.16552445       2.06660644
C       -1.46025563       0.78147555      -0.23339356
C       -1.25225563      -0.25152445       0.67960644
C       -0.97825563       0.67747555      -1.54039356
C       -0.28525563      -0.46352445      -1.94039356
C       -0.55125563      -1.38952445       0.27560644
C       -0.07125563      -1.49752445      -1.02839356
H       -2.00625563       1.66647555       0.06760644
H       -1.14525563       1.46647555      -2.24639356
H       -1.63125563       0.83947555       2.43160644
H       -1.28825563      -0.85652445       2.72060644
H        0.07374437      -0.55552445      -2.95639356
H       -0.38325563      -2.20152445       0.96960644
H        0.45674437      -2.38252445      -1.33939356
H       -2.90128563      -0.38437445       2.11252944
