19
Properties=species:S:1:pos:R:3 pbc="F F F"
C        1.41271009      -1.42391880      -0.61050419
C        2.42271009      -0.87591880      -1.59450419
H        1.75771009      -2.34491880      -0.15750419
H        1.33171009      -0.72691880       0.20749581
H        0.44871009      -1.57191880      -1.09750419
H        3.36471009      -0.70791880      -1.06850419
H        2.06071009       0.08608120      -1.95750419
H        2.59631009      -1.54665680      -2.44888819
C       -1.34628991       0.21208120       0.96149581
C       -2.48728991       0.95208120       0.22649581
C       -0.09828991       1.14008120       1.08049581
H       -1.68528991      -0.07491880       1.95549581
H       -1.07728991      -0.68591880       0.40949581
H       -2.07528991       1.51108120      -0.61550419
H       -2.94928991       1.66108120       0.91649581
H        0.65871009       0.67708120       1.71749581
H        0.33271009       1.26608120       0.08449581
H       -3.25553991       0.26409220      -0.15619819
H       -0.35931991       2.14117120       1.45423681
