16
Properties=species:S:1:pos:R:3 pbc="F F F"
C       -0.53338662       1.47000498      -0.93945915
C       -1.19838662       2.27700498      -2.05845915
H       -0.86438662       0.43300498      -0.98145915
H        0.54561338       1.50100498      -1.06345915
H       -0.79238662       1.89300498       0.03254085
H       -0.94638662       1.83600498      -3.01445915
H       -2.28942662       2.23097498      -1.92612915
H       -0.85903662       3.32309498      -2.03544915
C        0.82861338      -1.54099502       0.80954085
C        0.90461338      -2.20899502       2.18554085
H       -0.01038662      -1.92799502       0.23054085
H        0.68161338      -0.46999502       0.94754085
H        1.75961338      -1.69599502       0.26454085
H        1.51461338      -1.58999502       2.84354085
H        1.34694338      -3.21382502       2.11727085
H       -0.10370662      -2.28377502       2.61878085
