23
Properties=species:S:1:pos:R:3 pbc="F F F"
C       -1.95319753      -0.07063095      -2.07464181
C       -1.08119753      -0.52863095      -0.93564181
C        0.25580247      -0.89163095      -1.14864181
C       -1.60919753      -0.61063095       0.35535819
C        1.04780247      -1.33263095      -0.07964181
C       -0.81419753      -1.03963095       1.42035819
C        0.51080247      -1.40263095       1.20235819
H       -1.37619753       0.61936905      -2.69264181
H       -2.80919753       0.47936905      -1.67964181
H        0.68180247      -0.82363095      -2.13964181
H       -2.64019753      -0.34063095       0.53735819
H        2.07380247      -1.61863095      -0.25464181
H       -1.23719753      -1.10163095       2.41335819
H        1.12180247      -1.74563095       2.02735819
H       -2.31463583      -0.89977095      -2.70065181
C        1.09480247       2.43136905       0.16935819
C        2.25180247       2.62636905       1.14235819
H        0.29280247       3.13736905       0.34435819
H        1.44880247       2.55736905      -0.85164181
H        0.68780247       1.43036905       0.28435819
H        2.67580247       3.61836905       0.97635819
H        1.89194247       2.55898905       2.17964819
H        3.03917347       1.88382905       0.94569819
