16
Properties=species:S:1:pos:R:3 pbc="F F F"
C       -0.58915663       1.30211212      -0.92327620
C       -0.99715663       2.53211212      -1.76527620
H       -1.30715663       0.49411212      -1.06027620
H        0.39684337       0.95811212      -1.23727620
H       -0.53415663       1.56511212       0.13272380
H       -0.27715663       3.32811212      -1.56927620
H       -1.99997763       2.86400712      -1.45836300
H       -0.95647663       2.32072412      -2.84400720
C        0.72484337      -1.99788788       0.57672380
C        0.85484337      -1.84088788       2.10872380
H       -0.16915663      -1.49888788       0.20672380
H        1.59384337      -1.54888788       0.09372380
H        0.69184337      -3.05588788       0.32372380
H        0.95084337      -0.77788788       2.33372380
H       -0.04604663      -2.23220588       2.60396380
H        1.73571337      -2.36218788       2.51161180
