25
Properties=species:S:1:pos:R:3 pbc="F F F"
C        1.96313233       1.53352530      -2.00939600
C        0.35613233      -0.42847470      -1.61139600
C        0.22313233      -0.52347470       0.62960400
C        1.13513233       0.59852530      -1.17139600
C        1.06613233       0.56452530       0.26860400
C       -0.05886767      -0.84547470       1.95660400
C        0.51713233      -0.06447470       2.94960400
C        1.63413233       1.34252530       1.29360400
C        1.35313233       1.02052530       2.62660400
N       -0.19086767      -1.10447470      -0.54239600
H       -0.80386767      -1.90947470      -0.63239600
H        0.22113233      -0.69647470      -2.65539600
H       -0.69386767      -1.68147470       2.20460400
H        1.60313233       2.54952530      -1.84339600
H        1.82813233       1.29252530      -3.06339600
H        0.33113233      -0.29247470       3.99060400
H        2.24513233       2.19852530       1.05560400
H        1.77613233       1.62552530       3.41460400
H        3.03108233       1.49123530      -1.74921600
C       -3.64986767      -0.32347470      -1.30139600
O       -2.96686767      -1.40447470      -1.91439600
H       -2.39386767      -1.04547470      -2.60739600
H       -4.06586767       0.31552530      -2.08139600
H       -2.95586767       0.25952530      -0.69539600
H       -4.46917767      -0.71622470      -0.68133600
