20
Properties=species:S:1:pos:R:3 pbc="F F F"
C       -0.72363223       1.93375585      -1.53292185
C       -2.02963223       2.70575585      -1.65992185
H       -0.02163223       2.47675585      -0.90092185
H       -0.92863223       0.96375585      -1.08892185
H       -0.28263223       1.78175585      -2.51692185
H       -2.69163223       2.12975585      -2.30292185
H       -1.84225123       3.67725585      -2.14062685
H       -2.49736723       2.84260585      -0.67376885
C        1.46936777      -0.74124415       0.14207815
C        2.62936777      -0.34224415       1.04807815
C       -1.06063223      -1.83224415      -0.09192185
S       -0.09963223      -0.81324415       1.02807815
H        1.38036777      -0.02024415      -0.67192185
H        1.67636777      -1.71724415      -0.29592185
H        2.44836777       0.66075585       1.43107815
H        3.55036777      -0.33724415       0.47007815
H       -0.60263223      -2.81324415      -0.19392185
H       -2.06763223      -1.95024415       0.30807815
H       -1.11963223      -1.34024415      -1.05892185
H        2.77338477      -1.02848715       1.89562115
