24
Properties=species:S:1:pos:R:3 pbc="F F F"
C        0.39796142       2.56008907      -0.65255012
C       -0.38403858       3.31908907      -1.71655012
H       -0.29103858       2.06808907       0.03344988
H        1.02996142       1.80308907      -1.11455012
H        1.02696142       3.25508907      -0.09555012
H        0.33096142       3.87208907      -2.32355012
H       -1.08502858       4.02152907      -1.24200912
H       -0.93089858       2.62249907      -2.36901512
C        0.19696142      -0.51291093       3.23644988
C       -1.24303858      -0.67191093      -0.28155012
C       -0.10703858      -0.95691093      -1.03055012
C       -1.14303858      -0.52791093       1.09944988
C        0.08296142      -0.67791093       1.74244988
C        1.12396142      -1.09891093      -0.40155012
C        1.21496142      -0.95591093       0.97844988
O       -0.19503858      -1.09391093      -2.38055012
H       -2.18903858      -0.55091093      -0.78555012
H       -2.02503858      -0.29091093       1.67844988
H        2.01196142      -1.30791093      -0.97355012
H        0.66296142      -1.27191093      -2.76455012
H        0.92896142      -1.23091093       3.60344988
H       -0.75403858      -0.74391093       3.71944988
H        2.17496142      -1.05991093       1.46744988
H        0.53995142       0.49515907       3.51242488
