26
Properties=species:S:1:pos:R:3 pbc="F F F"
C       -0.66910637      -1.12959624       1.37276417
C       -1.91910637      -1.58959624       2.13776417
C       -0.95310637      -0.49759624       0.04076417
C       -0.55910637      -0.86759624      -1.20623583
C       -1.76510637       0.96440376      -1.38723583
N       -1.69710637       0.65340376      -0.09923583
N       -1.08310637       0.06140376      -2.08023583
H       -0.12310637      -0.42259624       1.99376417
H       -0.00310637      -1.96359624       1.20076417
H       -1.58210637      -2.38159624       2.80976417
H        0.04189363      -1.73659624      -1.45123583
H       -2.31510637       1.79540376      -1.80323583
H       -1.05310637       0.03740376      -3.08923583
H       -2.69632637      -1.97368624       1.46071417
H       -2.31967637      -0.79856624       2.78877417
C        2.35089363       0.39540376       0.48876417
C        3.86789363       0.19540376       0.56676417
C        1.89489363       1.76840376      -0.01523583
H        1.95889363      -0.36559624      -0.18523583
H        1.91789363       0.22540376       1.47076417
H        4.26289363       0.12740376      -0.43323583
H        2.52989363       2.07140376      -0.84823583
H        0.87989363       1.67240376      -0.40123583
H        4.10257463      -0.73650624       1.10198417
H        4.34523163       1.02332376       1.11146417
H        1.89852763       2.55823376       0.75036417
