31
Properties=species:S:1:pos:R:3 pbc="F F F"
C        3.68412194      -2.34302678       0.91591771
C       -0.07287806      -1.86502678       0.80891771
C        1.29512194      -1.59802678       0.88291771
C       -0.51987806      -3.16202678       0.64191771
C        2.22112194      -2.62602678       0.78791771
C        0.39212194      -4.18902678       0.56591771
C        1.76212194      -3.92602678       0.63691771
H       -0.77887806      -1.05102678       0.88491771
H        1.62612194      -0.57902678       1.02991771
H       -1.57387806      -3.37402678       0.56591771
H        0.05512194      -5.20702678       0.44891771
H        4.24612194      -3.27702678       0.86191771
H        3.86512194      -1.92102678       1.90191771
H        2.46412194      -4.74702678       0.57991771
H        4.07663194      -1.64708778       0.15986771
C        1.47512194       3.48197322      -1.54508229
C       -1.51387806       1.14097322      -1.06808229
C       -0.29187806       1.67797322      -1.52308229
C       -2.29587806       1.87797322      -0.19108229
C        0.13712194       2.93997322      -1.11408229
C       -1.88787806       3.13797322       0.21291771
C       -0.66787806       3.65597322      -0.23308229
O       -3.49787806       1.38997322       0.26091771
H       -1.83587806       0.16297322      -1.39508229
H        0.33012194       1.10297322      -2.19608229
H       -3.77287806       0.67597322      -0.31708229
H       -2.51287806       3.71097322       0.88091771
H        1.45912194       4.57297322      -1.51208229
H        1.67612194       3.17697322      -2.56908229
H       -0.37987806       4.64397322       0.07791771
H        2.28699194       3.09979322      -0.90883229
