34
Properties=species:S:1:pos:R:3 pbc="F F F"
C       -0.54028041       2.58216932      -0.55792108
C        0.03271959       0.65916932       1.00307892
C       -0.85328041       1.40916932       0.29907892
C       -1.96028041      -0.28483068       1.38307892
C       -2.14228041       0.83316932       0.53007892
C       -3.03328041      -1.07283068       1.80907892
C       -3.42728041       1.11116932       0.05507892
C       -4.29628041      -0.75283068       1.34207892
C       -4.49228041       0.32216932       0.46307892
N       -0.62128041      -0.34983068       1.67007892
H        1.10571959       0.81516932       1.02107892
H       -0.15928041      -1.14483068       2.11807892
H       -1.06928041       2.48016932      -1.50492108
H        0.52771959       2.55716932      -0.77992108
H       -2.87228041      -1.91183068       2.47207892
H       -3.55828041       1.90216932      -0.65292108
H       -5.14628041      -1.35083068       1.64507892
H       -5.49028041       0.53816932       0.10607892
H       -0.78548041       3.55577932      -0.10851108
C        4.26471959       1.35716932      -1.62092108
C        1.43871959      -1.16183068      -1.48192108
C        2.14871959       0.00316932      -1.75092108
C        2.03971959      -2.18183068      -0.74392108
C        3.46271959       0.12816932      -1.30392108
C        3.33971959      -2.07183068      -0.32792108
C        4.03771959      -0.90683068      -0.58092108
H        0.41771959      -1.26983068      -1.81892108
H        1.68471959       0.79616932      -2.32092108
H        1.48071959      -3.08083068      -0.52292108
H        3.80271959      -2.87683068       0.22607892
H        4.05371959       1.64016932      -2.65392108
H        5.33171959       1.13716932      -1.56192108
H        5.05271959      -0.81383068      -0.21792108
H        4.02437959       2.21305932      -0.97308108
