24
Properties=species:S:1:pos:R:3 pbc="F F F"
C        2.49429835       1.71820875       1.50283436
C       -0.38370165      -1.26279125       0.28883436
C        0.94829835      -1.37179125      -0.12616564
C       -0.78470165      -0.19479125       1.07383436
C        1.88729835      -0.41579125       0.27983436
C        0.16329835       0.76620875       1.47183436
C        1.50429835       0.64120875       1.10883436
O       -1.32670165      -2.16579125      -0.12216564
H        1.25229835      -2.18979125      -0.76316564
H       -1.01570165      -2.67479125      -0.90016564
H       -1.81770165      -0.10479125       1.37383436
H        2.91529835      -0.50679125      -0.04216564
H       -0.15170165       1.60520875       2.07083436
H        3.38829835       1.23820875       1.89883436
H        2.07329835       2.33820875       2.29483436
H        2.78744835       2.35754875       0.65707436
C       -1.96870165       0.44320875      -2.71016564
C       -1.91070165       1.82120875      -2.07916564
H       -1.05870165       0.24520875      -3.27116564
H       -2.05170165      -0.31179125      -1.93416564
H       -2.83270165       0.37120875      -3.36516564
H       -0.94970165       1.91420875      -1.59516564
H       -2.03407165       2.60302875      -2.84305564
H       -2.67903165       1.93293875      -1.29994564
