27
Properties=species:S:1:pos:R:3 pbc="F F F"
C       -0.03684476      -0.03208122       3.97888518
C        0.67015524      -0.73908122       0.38288518
C        0.24615524       0.14691878       1.39888518
C        0.28515524      -0.57208122       2.63788518
C        0.71715524      -1.82508122       2.34288518
C        0.41215524       0.95391878      -1.26811482
C        0.74515524      -0.35508122      -0.95011482
C       -0.02184476       1.84291878      -0.28611482
C       -0.09584476       1.45791878       1.04488518
N        0.91815524      -1.93908122       0.99188518
H        0.49615524       1.29291878      -2.29011482
H        1.06415524      -1.05508122      -1.70811482
H       -0.28084476       2.85791878      -0.56211482
H       -0.41284476       2.15891878       1.80288518
H        1.27915524      -2.77308122       0.52688518
H        0.89015524      -2.61908122       3.06088518
H       -0.72284476       0.80991878       3.87988518
H        0.89715524       0.35291878       4.39088518
H       -0.46500476      -0.77412122       4.66885518
C       -1.78284476       0.00691878      -4.09511482
C       -1.58584476       1.08291878      -5.16511482
H       -0.87284476      -0.15008122      -3.52011482
H       -2.58084476       0.31291878      -3.41811482
H       -2.06384476      -0.93508122      -4.56811482
H       -2.50084476       1.13391878      -5.74411482
H       -0.76201476       0.81046878      -5.84118482
H       -1.39358476       2.07045878      -4.72037482
