34
Properties=species:S:1:pos:R:3 pbc="F F F"
C        1.13609548      -0.61126090      -2.01767211
C       -0.05890452      -0.98226090      -2.88967211
C        1.02109548       0.70273910      -1.28567211
C       -0.02590452       0.93773910      -0.38267211
C        1.96609548       1.72573910      -1.44067211
C       -0.14690452       2.12973910       0.31932789
C        1.84509548       2.92873910      -0.74567211
C        0.79409548       3.13973910       0.14732789
O        0.63909548       4.31573910       0.84332789
H        1.27509548      -1.38926090      -1.26567211
H        2.03509548      -0.59726090      -2.63467211
H       -0.96690452      -0.89126090      -2.29467211
H       -0.76790452       0.16773910      -0.23967211
H        2.79709548       1.58473910      -2.12067211
H       -0.97190452       2.25673910       1.00732789
H        2.57709548       3.71173910      -0.88767211
H       -0.17290452       4.29973910       1.35132789
H        0.03969548      -2.02947090      -3.21160211
H       -0.14138452      -0.29272090      -3.74274011
C        0.25909548      -1.07526090       2.89232789
C       -0.68290452      -3.29526090      -0.04267211
C        0.04509548      -2.70926090       0.99432789
C       -1.99290452      -2.91526090      -0.27667211
C       -0.53090452      -1.71726090       1.77932789
C       -2.57690452      -1.93926090       0.50632789
C       -1.85590452      -1.34326090       1.53632789
H       -0.23390452      -4.07626090      -0.62767211
H        1.06209548      -3.02726090       1.17732789
H       -2.56590452      -3.39426090      -1.05767211
H       -3.60790452      -1.67326090       0.36032789
H        0.07109548      -0.00526090       2.87332789
H        1.31909548      -1.22526090       2.69332789
H       -2.32390452      -0.58026090       2.14232789
H        0.01948548      -1.47509090       3.88867789
