30
Properties=species:S:1:pos:R:3 pbc="F F F"
C       -2.28419509       3.90124085       0.14100221
C       -0.67119509       0.60524085      -0.89699779
C       -0.96119509       1.77324085      -0.18399779
C       -1.38019509       0.30624085      -2.06299779
C       -1.94619509       2.65324085      -0.63899779
C       -2.36919509       1.17724085      -2.51599779
C       -2.65219509       2.34224085      -1.80399779
H        0.09580491      -0.06975915      -0.54499779
H       -0.41719509       1.99124085       0.72300221
H       -1.16219509      -0.60075915      -2.61099779
H       -2.92819509       0.93324085      -3.40599779
H       -2.24819509       3.66124085       1.20500221
H       -3.31019509       4.19624085      -0.08699779
H       -3.42719509       3.00624085      -2.15999779
H       -1.61030409       4.74918085      -0.05102379
C        0.37980491      -1.58675915       3.10500221
C        2.06280491      -0.71975915       1.45500221
C        1.21380491      -1.74575915       1.86700221
C        2.86780491      -0.87975915       0.33300221
C        1.17880491      -2.93775915       1.14600221
C        2.82980491      -2.07275915      -0.38399779
C        1.98080491      -3.10375915       0.02000221
H        2.09680491       0.20624085       2.00800221
H        3.52180491      -0.08075915       0.01300221
H       -0.57019509      -2.10575915       2.97300221
H        0.15080491      -0.52875915       3.24500221
H        0.52780491      -3.73875915       1.46000221
H        3.47280491      -2.20075915      -1.24299779
H        1.95780491      -4.03175915      -0.53099779
H        0.87982991      -1.95926915       4.01120821
