16
Properties=species:S:1:pos:R:3 pbc="F F F"
C        0.89188265      -1.24632302       1.51864546
C        1.12188265      -2.31532302       0.45064546
H        1.60888265      -0.43232302       1.40764546
H       -0.11011735      -0.83332302       1.40464546
H        0.96888265      -1.67032302       2.51964546
H        0.99188265      -1.85732302      -0.52935454
H        2.13670765      -2.73520102       0.51255546
H        0.37434265      -3.11533502       0.55630546
C       -0.46111735       1.28167698      -0.81535454
C       -1.54811735       2.28067698      -1.15135454
H        0.25288265       1.20267698      -1.63535454
H        0.05788265       1.59167698       0.09064546
H       -0.90611735       0.30067698      -0.64335454
H       -2.21611735       2.36167698      -0.29435454
H       -2.12139735       1.92812098      -2.02144454
H       -1.09169935       3.25056398      -1.39834454
