27
Properties=species:S:1:pos:R:3 pbc="F F F"
C        2.93651987       1.52896258       1.58349326
C        0.75951987      -1.09403742      -0.06450674
C        1.16151987       0.26796258       0.09849326
C        2.24651987       0.29296258       1.06649326
C        2.45551987      -1.00603742       1.44149326
C       -0.90748013      -0.48303742      -1.67950674
C       -0.26648013      -1.48003742      -0.93050674
C       -0.53548013       0.87096258      -1.54850674
C        0.48751987       1.25496258      -0.65850674
N        1.56051987      -1.85003742       0.76649326
H       -1.69748013      -0.75503742      -2.36550674
H       -0.53048013      -2.53003742      -1.00050674
H       -1.03448013       1.63296258      -2.13150674
H        0.75451987       2.30096258      -0.58150674
H        1.49551987      -2.85903742       0.85849326
H        3.22751987      -1.23403742       2.17349326
H        2.85751987       2.29196258       0.80049326
H        3.98751987       1.28596258       1.72849326
H        2.54832987       1.89136258       2.54680326
C       -3.71048013       0.88396258      -0.35750674
C       -5.18048013       0.58196258       0.06349326
H       -3.06048013       0.87096258       0.51849326
H       -3.36548013       0.12896258      -1.06250674
H       -3.65048013       1.86496258      -0.83050674
H       -5.24048013      -0.42103742       0.49249326
H       -5.56474013       1.32556258       0.77721326
H       -5.81883013       0.62676258      -0.83121674
