23
Properties=species:S:1:pos:R:3 pbc="F F F"
C       -1.50932123      -2.17697444       2.46650559
C       -0.47032123       0.52502556      -0.01849441
C       -1.11532123      -0.14997444       1.03250559
C        0.49167877      -0.15897444      -0.76949441
C       -0.80532123      -1.48497444       1.32250559
C        0.80367877      -1.48897444      -0.47749441
C        0.17667877      -2.14797444       0.56850559
H       -0.71932123       1.55402556      -0.23849441
H       -1.86532123       0.36502556       1.61450559
H        1.00767877       0.32902556      -1.58149441
H        1.55767877      -2.00397444      -1.05249441
H       -1.43732123      -1.56197444       3.36550559
H       -0.99332123      -3.11297444       2.67250559
H        0.43367877      -3.17597444       0.78650559
H       -2.57274523      -2.37409044       2.26581559
C        0.53367877       3.09602556      -2.40049441
C        1.71067877       3.23402556      -1.41249441
H        0.69767877       3.73302556      -3.26549441
H        0.49067877       2.07102556      -2.76249441
H       -0.40532123       3.35502556      -1.91349441
H        1.55167877       2.58702556      -0.55149441
H        1.83400277       4.27769556      -1.08762441
H        2.61146177       2.92687556      -1.96408441
