24
Properties=species:S:1:pos:R:3 pbc="F F F"
C        1.01680523      -2.91057700       1.27982683
C        1.65180523      -4.18257700       1.83582683
H       -0.06519477      -2.93157700       1.39982683
H        1.39480523      -2.05457700       1.83982683
H        1.28080523      -2.77657700       0.23182683
H        1.24680523      -4.38457700       2.82882683
H        2.72580523      -4.01957700       1.91782683
H        1.44950523      -5.02966700       1.16387583
C        1.43080523       2.87742300      -1.78017317
C       -0.42519477      -0.33257700      -0.84617317
C        0.43580523       0.56742300      -1.49917317
C       -1.21319477       0.10742300       0.21082683
C        0.50280523       1.90342300      -1.09917317
C       -1.16119477       1.43342300       0.60882683
C       -0.30019477       2.32642300      -0.04217317
O       -2.06019477      -0.74757700       0.85582683
H       -0.47019477      -1.36357700      -1.16617317
H        1.05080523       0.22042300      -2.32017317
H       -1.98919477      -1.64457700       0.51482683
H       -1.78919477       1.77142300       1.42082683
H        2.24480523       2.31742300      -2.22617317
H        1.85780523       3.55442300      -1.04717317
H       -0.29119477       3.36542300       0.26682683
H        0.95777123       3.51439300      -2.54208317
