25
Properties=species:S:1:pos:R:3 pbc="F F F"
C       -0.86161980      -2.51057818       1.21633975
C       -1.33561980      -1.66657818       2.39333975
C        0.62738020      -2.35757818       0.92533975
O        1.33538020      -1.65057818       1.68333975
O        1.08638020      -2.95957818      -0.07566025
H       -1.05461980      -3.55957818       1.45433975
H       -1.45661980      -2.26457818       0.33533975
H       -1.25361980      -0.60757818       2.14033975
H       -0.68461980      -1.87057818       3.24333975
H       -2.36601980      -1.89276818       2.70497275
C        0.02638020       4.20442182      -0.91366025
C       -0.25761980      -0.08457818      -1.03166025
C       -1.41961980       0.68442182      -0.97266025
C        0.98738020       0.53342182      -1.02066025
C       -1.33161980       2.07642182      -0.94066025
C        1.06738020       1.92042182      -1.01266025
C       -0.08461980       2.70342182      -0.96466025
H       -0.33261980      -1.15057818      -1.15166025
H       -2.38861980       0.20242182      -0.97166025
H        1.88838020      -0.06357818      -1.06166025
H       -2.23161980       2.66442182      -0.87966025
H        2.03738020       2.39242182      -1.07866025
H        1.07238020       4.51442182      -0.95066025
H       -0.35961980       4.50742182       0.06133975
H       -0.53976980       4.72608182      -1.69937725
