17
Properties=species:S:1:pos:R:3 pbc="F F F"
C       -0.09801751       0.16448169      -1.50565228
C       -0.22901751       0.04948169      -3.01965228
O       -1.09101751      -0.58651831      -0.83965228
H        0.88298249      -0.20751831      -1.20565228
H       -0.17101751       1.21248169      -1.21165228
H        0.63398249       0.57648169      -3.42765228
H       -1.70401751       0.05748169      -0.42665228
H       -1.15857751       0.51838069      -3.37469728
H       -0.11471751      -0.99876131      -3.33289528
C        0.97698249      -0.27251831       2.11634772
C        0.55898249       0.65048169       3.26234772
H        1.36598249      -1.21451831       2.50334772
H        0.10498249      -0.50151831       1.50534772
H        1.73398249       0.21148169       1.50034772
H       -0.18901751       0.13348169       3.85134772
H        1.41985249       0.89327269       3.90262772
H        0.10702249       1.57528069       2.87443572
