24
Properties=species:S:1:pos:R:3 pbc="F F F"
C        0.04066371       1.84630110       2.91118829
C        1.33566371       1.28630110       3.45618829
H       -0.07633629       1.63130110       1.85518829
H       -0.79733629       1.39330110       3.43918829
H        0.01766371       2.92530110       3.06118829
H        1.29066371       0.19630110       3.45018829
H        1.38166371       1.61530110       4.49118829
H        2.22336371       1.62242110       2.90029829
C        1.94466371      -0.80069890      -2.86581171
C       -1.19033629      -0.24769890       0.03618829
C       -0.60733629      -1.50869890      -0.11481171
C       -0.76533629       0.82030110      -0.75081171
C        0.40766371      -1.69269890      -1.05481171
C        0.24866371       0.62730110      -1.68681171
C        0.84666371      -0.62569890      -1.84881171
O       -2.17333629      -0.05069890       0.95818829
H       -0.94533629      -2.33869890       0.48918829
H       -2.35333629      -0.84169890       1.47818829
H       -1.21833629       1.79030110      -0.63281171
H        0.82166371      -2.68369890      -1.14881171
H        0.57166371       1.45330110      -2.30581171
H        2.66066371       0.01330110      -2.74481171
H        1.49366371      -0.69469890      -3.85381171
H        2.48389371      -1.75875890      -2.82904171
