24
Properties=species:S:1:pos:R:3 pbc="F F F"
C        2.16228750       1.16511527       2.68951245
C        0.53828750      -0.26488473      -0.44248755
C       -0.24071250       0.81011527      -0.86648755
C        1.32628750      -0.13588473       0.70051245
C        1.33928750       1.06011527       1.42851245
C       -0.24171250       2.00411527      -0.14748755
C        0.55028750       2.12811527       0.99451245
O       -1.01271250       0.67811527      -1.97748755
H        0.53328750      -1.18288473      -1.00948755
H        1.92928750      -0.97388473       1.02651245
H       -0.85371250       2.83311527      -0.47048755
H       -1.54971250       1.47711527      -2.10648755
H        2.68528750       0.22611527       2.83451245
H        1.47228750       1.27311527       3.52851245
H        0.53828750       3.05511527       1.55451245
H        2.88941750       1.98934527       2.73341245
C       -1.97171250      -2.76688473      -1.44648755
C       -1.79971250      -3.94188473      -0.46848755
H       -1.22871250      -2.80488473      -2.24248755
H       -2.95971250      -2.81588473      -1.90448755
H       -1.88271250      -1.82388473      -0.90848755
H       -1.90771250      -4.86488473      -1.03748755
H       -0.80696250      -3.93123473       0.00511245
H       -2.59567250      -3.91099473       0.29011245
