23
Properties=species:S:1:pos:R:3 pbc="F F F"
C        2.70061469       0.70882155      -1.64482810
C        4.15161469       0.25682155      -1.69482810
H        2.04161469      -0.08417845      -1.29382810
H        2.61161469       1.54282155      -0.95382810
H        2.40661469       1.03882155      -2.63782810
H        4.48761469      -0.06817845      -0.72282810
H        4.74561469       1.13482155      -1.93782810
H        4.34834069      -0.52864845      -2.43936810
C       -1.76938531      -2.49317845       0.22517190
C        0.17961469       0.58682155       1.27917190
C       -0.19638531      -0.74217845       1.09417190
C       -0.62338531       1.61182155       0.78817190
C       -1.36938531      -1.05717845       0.41517190
C       -1.79838531       1.30282155       0.11317190
C       -2.16838531      -0.02717845      -0.07182810
H        1.09161469       0.82282155       1.80317190
H        0.41361469      -1.53717845       1.49117190
H       -0.33638531       2.64482155       0.93217190
H       -2.42738531       2.09882155      -0.26282810
H       -2.80538531      -2.55117845      -0.11182810
H       -1.71638531      -2.98417845       1.19917190
H       -3.09038531      -0.24617845      -0.58682810
H       -1.12444531      -3.03950845      -0.47879810
