24
Properties=species:S:1:pos:R:3 pbc="F F F"
C       -0.67164149       0.06717710      -2.79295831
C       -1.33064149      -0.57182290      -4.05395831
H        0.39135851       0.23017710      -2.97395831
H       -1.14864149       1.02217710      -2.56995831
H       -0.78964149      -0.59782290      -1.93695831
H       -2.37664149      -0.76182290      -3.80195831
H       -0.86291949      -1.54266590      -4.27463831
H       -1.30703949       0.08332410      -4.93725831
C       -1.84964149       2.02517710       0.34604169
C       -0.71964149       1.02917710       0.62104169
C       -1.00564149      -0.13182290       1.36304169
C        0.59935851       1.25017710       0.15204169
C       -0.02064149      -1.03782290       1.67804169
C        1.61035851       0.32117710       0.45904169
C        1.28935851      -0.81582290       1.24704169
O        2.17635851      -1.79682290       1.61104169
H       -2.72264149       1.48317710      -0.02095831
H       -1.53864149       2.73917710      -0.41795831
H       -2.01764149      -0.31282290       1.70404169
H        0.82535851       2.12317710      -0.44795831
H       -0.26764149      -1.90982290       2.26604169
H        2.61535851       0.43617710       0.08804169
H        1.77235851      -2.47182290       2.16104169
H       -2.10789749       2.55156700       1.27675169
