32
Properties=species:S:1:pos:R:3 pbc="F F F"
C        4.56719396       2.92935278      -1.27608689
C        0.79619396       1.32535278       0.07791311
C        1.57819396       0.58835278      -0.79908689
C        1.20419396       2.58535278       0.48191311
C        2.80019396       1.12535278      -1.25408689
C        2.42419396       3.10335278       0.03591311
C        3.22919396       2.38735278      -0.84508689
O       -0.40580604       0.83735278       0.52991311
H       -0.68080604       0.12335278      -0.04808689
H        1.25619396      -0.38964722      -1.12608689
H        0.57919396       3.15835278       1.14991311
H        3.42219396       0.55035278      -1.92708689
H        2.71219396       4.09135278       0.34691311
H        4.55119396       4.02035278      -1.24308689
H        4.76819396       2.62435278      -2.30008689
H        5.37906396       2.54717278      -0.63983689
C       -3.16280604      -0.83864722       0.03591311
C       -3.41280604      -1.23964722      -1.41708689
C       -2.02280604      -2.83164722       1.02491311
N       -2.03380604      -1.54764722       0.66791311
N       -3.06380604      -3.61964722       0.80591311
N       -0.95080604      -3.33664722       1.60491311
H       -2.99080604       0.23935278       0.07391311
H       -4.07080604      -1.02464722       0.61291311
H       -4.30180604      -0.71464722      -1.75908689
H       -3.60680604      -2.30464722      -1.48908689
H       -1.32980604      -0.97964722       1.11891311
H       -3.89980604      -3.24164722       0.37091311
H       -3.04080604      -4.57464722       1.11991311
H       -0.17280604      -2.75364722       1.86491311
H       -0.84680604      -4.34964722       1.65191311
H       -2.57498604      -0.98700622      -2.08359689
