23
Properties=species:S:1:pos:R:3 pbc="F F F"
C        1.29326659      -2.87315449      -1.07500184
C        0.04226659      -3.72815449      -1.25500184
H        2.15726659      -3.50015449      -0.86300184
H        1.48626659      -2.31515449      -1.99200184
H        1.15926659      -2.15415449      -0.27000184
H       -0.78473341      -3.05915449      -1.49400184
H       -0.20573041      -4.28989449      -0.34234584
H        0.18005959      -4.41639449      -2.10195884
C       -2.46573341       1.72484551       1.09099816
C        1.48726659       0.58384551      -0.16500184
C        1.08826659       0.37084551       1.15099816
C        0.60026659       1.15784551      -1.06800184
C       -0.19573341       0.74384551       1.56199816
C       -0.67373341       1.53484551      -0.65400184
C       -1.08173341       1.32984551       0.65999816
H        2.47926659       0.29484551      -0.48700184
H        1.78426659      -0.06415449       1.84999816
H        0.88926659       1.28984551      -2.09800184
H       -0.49373341       0.59584551       2.58599816
H       -1.34873341       1.99884551      -1.35800184
H       -2.78073341       2.59584551       0.51399816
H       -2.43373341       2.03384551       2.13699816
H       -3.21309341       0.92589551       0.97635106
