21
Properties=species:S:1:pos:R:3 pbc="F F F"
C       -0.14209266      -0.00798492      -1.41596900
C       -0.26509266       0.07501508      -2.91296900
C        1.06390734       0.74101508      -0.83396900
O        1.63890734       1.57601508      -1.56096900
O        1.43690734       0.50201508       0.34703100
H       -1.04309266       0.43701508      -0.98996900
H       -0.08509266      -1.05598492      -1.12396900
H        0.57590734      -0.43998492      -3.37696900
H       -0.26209266       1.11701508      -3.23396900
H       -1.20822266      -0.38485492      -3.24316900
C       -0.83709266      -1.10098492       1.69003100
C       -2.34009266      -1.50798492       1.63903100
C       -0.52609266      -0.31698492       3.00303100
H       -0.16809266      -1.94498492       1.53103100
H       -0.72809266      -0.36998492       0.92303100
H       -2.65409266      -1.51698492       0.59303100
H       -2.93209266      -0.73898492       2.14003100
H       -1.22509266       0.51901508       3.08003100
H       -0.71509266      -0.97598492       3.85303100
H       -2.55941266      -2.49133492       2.08053100
H        0.48692734       0.09981508       3.10334100
