29
Properties=species:S:1:pos:R:3 pbc="F F F"
C        2.88854004      -2.25895007      -0.70302800
C        0.08154004      -0.71295007       1.26897200
C        0.82854004      -1.57895007       0.51997200
C        0.55454004       0.52304993       1.53697200
C        2.09454004      -1.23895007       0.05197200
C        1.80754004       0.90504993       1.09997200
C        2.59854004       0.01004993       0.35097200
H       -0.88045996      -1.02195007       1.65297200
H        0.43354004      -2.55895007       0.29797200
H       -0.04745996       1.21104993       2.11297200
H        2.19054004       1.88504993       1.35297200
H        2.68554004      -3.24395007      -0.27702800
H        3.94954004      -2.05595007      -0.55602800
H        3.58854004       0.29904993       0.02397200
H        2.65846004      -2.28347007      -1.77841700
C       -2.38045996       0.84504993      -0.60502800
C       -3.89345996       0.68304993      -0.63702800
C       -1.75045996       0.29704993      -1.87402800
C       -1.94845996       2.29204993      -0.44602800
H       -1.99245996       0.27604993       0.22497200
H       -4.11145996      -0.34995007      -0.91002800
H       -4.30445996       1.32704993      -1.41502800
H       -2.13445996       0.83204993      -2.74202800
H       -0.66545996       0.39504993      -1.81902800
H       -1.98045996      -0.75695007      -1.98902800
H       -2.37645996       2.71904993       0.45897200
H       -0.86145996       2.33804993      -0.36402800
H       -2.26345996       2.87504993      -1.31202800
H       -4.38509996       0.90730993       0.32109500
