27
Properties=species:S:1:pos:R:3 pbc="F F F"
C        2.48551886      -0.53174187       1.33526243
C        0.20151886      -0.67774187       0.08426243
C        1.09851886      -1.03874187       1.13826243
C       -1.02748114      -1.34274187       0.30826243
C        0.39051886      -1.84074187       1.96426243
C       -0.74448114       0.24425813      -1.91073757
C       -1.95048114      -0.39574187      -1.65973757
C        0.33051886       0.12325813      -1.04573757
C       -2.11348114      -1.19274187      -0.54873757
N       -0.88548114      -2.03274187       1.48826243
H       -0.65148114       0.86825813      -2.78973757
H       -2.77448114      -0.27274187      -2.34773757
H        1.25351886       0.64625813      -1.23773757
H       -3.05948114      -1.66874187      -0.34873757
H        2.38451886       0.45425813       1.79026243
H        2.94151886      -0.37874187       0.35726243
H        0.77751886      -2.31874187       2.84426243
H       -1.64748114      -2.36574187       2.05626243
H        3.16252886      -1.12196187       1.97032243
C        0.14951886       3.85225813      -0.89573757
C        1.58151886       3.77025813      -0.37573757
H        0.14851886       4.23225813      -1.91173757
H       -0.30948114       2.86525813      -0.89273757
H       -0.44448114       4.51725813      -0.26973757
H        2.14851886       3.07525813      -0.99473757
H        2.03999886       4.76899813      -0.42380757
H        1.54812886       3.38921813       0.65561243
