14
Properties=species:S:1:pos:R:3 pbc="F F F"
C       -0.72400454      -0.99101057       2.38793145
O       -0.29400454      -0.09501057       1.38293145
H       -0.97900454      -0.05901057       0.70593145
H       -0.94300454      -1.96901057       1.95793145
H        0.00660626      -1.09090057       3.20416145
H       -1.64452694      -0.52278057       2.76661145
C        0.47999546      -0.06001057      -1.54906855
C        0.64099546       1.20598943      -2.40306855
H        0.91699546       0.11498943      -0.57706855
H       -0.53400454      -0.42501057      -1.43306855
H        1.05799546      -0.86401057      -2.00906855
H        0.88099546       0.87898943      -3.41706855
H        1.47530846       1.82785543      -2.04640855
H       -0.30127404       1.77034743      -2.46330855
