24
Properties=species:S:1:pos:R:3 pbc="F F F"
C        0.78137584       1.51373675      -3.36714744
C        2.22337584       1.27073675      -2.92214744
H        0.75837584       1.86373675      -4.40114744
H        0.21137584       0.58773675      -3.30714744
H        0.29937584       2.24173675      -2.71714744
H        2.25337584       1.12473675      -1.84614744
H        2.86069584       2.12671675      -3.18883744
H        2.62351584       0.36518675      -3.40159744
C       -0.04062416       2.12873675       2.34885256
C        0.10637584      -0.51926325      -0.39814744
C        0.29737584       0.67473675       0.30785256
C       -0.60762416      -1.56626325       0.18985256
C       -0.22162416       0.83473675       1.59385256
C       -1.13062416      -1.42026325       1.47285256
C       -0.93662416      -0.22326325       2.16785256
O       -0.79462416      -2.73926325      -0.48114744
H        0.51837584      -0.64226325      -1.38614744
H        0.84737584       1.47873675      -0.14414744
H       -0.40262416      -2.72026325      -1.36114744
H       -1.67862416      -2.23526325       1.92285256
H        0.92337584       2.57773675       2.10185256
H       -0.01962416       1.87873675       3.40785256
H       -1.34462416      -0.11626325       3.16485256
H       -0.85489416       2.85021675       2.18628556
