23
Properties=species:S:1:pos:R:3 pbc="F F F"
C       -2.79080001       0.87481058      -0.48457494
C       -0.64180001       0.79481058       0.83342506
C       -1.63480001       0.13681058       0.12142506
C        0.43019999       0.07181058       1.37142506
C        0.43619999      -1.34118942       1.30342506
C       -1.60880001      -1.24518942       0.02142506
C       -0.58780001      -1.98118942       0.58742506
H       -0.66680001       1.87181058       0.92242506
H        1.23419999       0.58081058       1.87942506
H       -3.00280001       1.74681058       0.13342506
H       -3.66980001       0.23481058      -0.43957494
H        1.24019999      -1.91318942       1.74642506
H       -2.39480001      -1.76118942      -0.50957494
H       -0.58280001      -3.05818942       0.48742506
H       -2.61819301       1.21420058      -1.51657494
C        2.21619999       0.81381058      -1.60057494
C        3.59919999       1.40781058      -1.58057494
H        2.01219999       0.35281058      -2.55857494
H        2.13719999       0.05481058      -0.82457494
H        1.47019999       1.58281058      -1.39857494
H        3.74919999       1.89781058      -0.62057494
H        3.65901999       2.13290058      -2.40560094
H        4.37027999       0.63600058      -1.72110194
