25
Properties=species:S:1:pos:R:3 pbc="F F F"
C       -2.04217772      -2.33078176       2.78253433
C       -2.28317772      -1.06678176       2.03353433
O       -2.73417772      -1.10378176       0.87853433
N       -1.96217772       0.05221824       2.65153433
H       -2.75317772      -3.06778176       2.41853433
H       -2.23917772      -2.19378176       3.83853433
H       -2.14017772       0.93021824       2.19153433
H       -1.60417772       0.02121824       3.60753433
H       -0.99837772      -2.65860376       2.66841433
C        0.68782228      -1.69578176      -2.97146567
C        0.52382228       0.70021824       0.04053433
C        1.49482228       1.66021824      -0.26946567
C        0.24782228      -0.35878176      -0.83746567
C        0.92182228      -0.48278176      -2.06046567
C        2.20382228       1.54321824      -1.48446567
C        1.91582228       0.45621824      -2.36546567
O        1.72982228       2.70021824       0.60053433
H       -0.00617772       0.78021824       0.97553433
H       -0.49517772      -1.09478176      -0.56346567
H        2.96382228       2.26821824      -1.74246567
H        2.40382228       3.30121824       0.26053433
H        0.70482228      -1.39978176      -4.02146567
H       -0.29717772      -2.10578176      -2.74546567
H        2.46782228       0.36821824      -3.29246567
H        1.46528228      -2.44547576      -2.76286567
