22
Properties=species:S:1:pos:R:3 pbc="F F F"
C        0.71851447       1.01953630      -1.28891128
C        0.36751447       0.83453630      -2.71991128
C        2.24051447       1.04253630      -1.29291128
H        0.37151447       0.13653630      -0.77391128
H        0.27151447       1.92353630      -0.88391128
H       -0.59448553       0.35153630      -2.78691128
H        0.43951447       1.76453630      -3.28191128
H        2.59351447       2.07153630      -1.38391128
H        1.10693147       0.08926830      -3.04830128
H        2.49785347       0.48333330      -2.20454128
H        2.65641547       0.59287430      -0.37922128
C       -0.79348553      -0.89246370       1.20308872
C       -2.04748553      -0.01146370       1.38408872
N       -0.43948553      -1.73746370       2.39808872
H       -0.93748553      -1.53946370       0.33108872
H        0.04951447      -0.22546370       1.01108872
H       -1.75248553       0.99953630       1.67708872
H       -2.64948553      -0.43346370       2.19208872
H       -1.18248553      -2.38946370       2.62208872
H        0.39651447      -2.28546370       2.23108872
H       -0.27248553      -1.16846370       3.22008872
H       -2.67327853       0.02845030       0.48032872
