23
Properties=species:S:1:pos:R:3 pbc="F F F"
C       -2.61346010      -2.07971685       2.23860706
C       -1.82046010      -3.32271685       1.88160706
H       -1.97446010      -1.33071685       2.70860706
H       -3.05246010      -1.64471685       1.33960706
H       -3.42346010      -2.34171685       2.91960706
H       -0.97046010      -3.02671685       1.26860706
H       -1.46092010      -3.80615685       2.80194106
H       -2.44334010      -4.01781685       1.29949306
C        2.76753990       2.17928315      -1.03739294
C       -0.83546010      -0.10271685      -0.39039294
C       -0.68446010       0.67328315      -1.54139294
C        0.19753990      -0.14471685       0.54360706
C        0.48253990       1.41028315      -1.74739294
C        1.36853990       0.60028315       0.32860706
C        1.51653990       1.37628315      -0.81739294
H       -1.74446010      -0.66471685      -0.23439294
H       -1.48546010       0.72128315      -2.26439294
H        0.09653990      -0.73871685       1.43960706
H        0.58253990       2.01328315      -2.63439294
H        2.15853990       0.56928315       1.06660706
H        3.18353990       2.47728315      -0.07339294
H        2.47853990       3.09728315      -1.55539294
H        3.54095990       1.66799315      -1.62933994
