29
Properties=species:S:1:pos:R:3 pbc="F F F"
C       -0.00381726      -1.75810208       3.19449533
C        1.03518274       0.94389792       0.70949533
C        0.39018274       0.26889792       1.76049533
C        1.99718274       0.25989792      -0.04150467
C        0.70018274      -1.06610208       2.05049533
C        2.30918274      -1.07010208       0.25049533
C        1.68218274      -1.72910208       1.29649533
H        0.78618274       1.97289792       0.48949533
H       -0.35981726       0.78389792       2.34249533
H        2.51318274       0.74789792      -0.85350467
H        3.06318274      -1.58510208      -0.32450467
H        0.06818274      -1.14310208       4.09349533
H        0.51218274      -2.69410208       3.40049533
H        1.93918274      -2.75710208       1.51449533
H       -1.06724126      -1.95521808       2.99380533
C       -1.74781726       0.98989792      -1.77850467
C       -3.28881726       0.89789792      -1.97650467
C       -0.99181726      -0.23410208      -2.29950467
C       -1.18781726       2.22889792      -2.47050467
H       -1.54781726       1.08089792      -0.70950467
H       -3.68681726       1.89689792      -1.82750467
H       -1.05481726      -0.30210208      -3.38750467
H        0.05718274      -0.17110208      -2.01150467
H       -1.41681726      -1.13010208      -1.85850467
H       -0.11981726       2.23489792      -2.31050467
H       -1.35381726       2.16389792      -3.54450467
H       -3.77878746       0.27933792      -1.21014467
H       -3.59160726       0.60307592      -2.99208267
H       -1.61465626       3.16909792      -2.09125267
