16
Properties=species:S:1:pos:R:3 pbc="F F F"
C       -0.88812283      -1.88669378       0.68019927
C        0.47487717      -2.09969378       1.34919927
H       -0.81912283      -1.14669378      -0.10980073
H       -1.22712283      -2.82369378       0.23619927
H       -1.63612283      -1.57369378       1.40919927
H        0.44787717      -3.01469378       1.94319927
H        0.73313917      -1.24538378       1.99220427
H        1.27500317      -2.19028378       0.59980527
C        0.22287717       1.27230622      -0.75480073
C        0.18187717       2.71530622      -1.27380073
H        0.50087717       0.58930622      -1.55880073
H        0.96387717       1.19830622       0.04119927
H       -0.75512283       1.00930622      -0.35380073
H        1.20087717       2.98130622      -1.54180073
H       -0.43303983       2.79544622      -2.18235073
H       -0.14993983       3.40617622      -0.48475073
