16
Properties=species:S:1:pos:R:3 pbc="F F F"
C        0.53478232      -1.68618312       0.97721872
C       -0.45021768      -2.19218312       2.02021872
H        0.45878232      -2.28218312       0.07121872
H        0.29878232      -0.66118312       0.71821872
H        1.55278232      -1.73018312       1.36521872
H       -0.36721768      -1.59818312       2.92121872
H       -0.17764568      -3.22896312       2.26676172
H       -1.48458468      -2.12211312       1.65255572
C        0.18278232       1.34681688      -1.07378128
C       -0.27221768       2.53181688      -1.92078128
H       -0.67421768       0.93081688      -0.54478128
H        0.60378232       0.57781688      -1.72078128
H        0.94078232       1.65281688      -0.36678128
H        0.60878232       2.99381688      -2.36678128
H       -0.78334368       3.27090688      -1.28635448
H       -0.91864668       2.19344688      -2.74396888
