26
Properties=species:S:1:pos:R:3 pbc="F F F"
C       -0.40193453      -0.10090076      -1.23901399
C        0.67906547      -0.78290076      -2.10201399
C        0.14306547       0.88109924      -0.26301399
C        0.33606547       2.21709924      -0.61701399
C        0.48006547       0.45309924       1.03598601
C        0.86206547       3.12209924       0.32298601
C        1.01506547       1.34409924       1.97998601
C        1.20606547       2.68109924       1.63398601
H       -1.11993453       0.39509924      -1.88501399
H       -0.94793453      -0.85990076      -0.68501399
H        0.17906547      -1.53790076      -2.71301399
H        0.04906547       2.56609924      -1.59801399
H        0.30506547      -0.57690076       1.30498601
H        0.97806547       4.16009924       0.04598601
H        1.26206547       0.99809924       2.97498601
H        1.60806547       3.37909924       2.35498601
H        1.46331547      -1.24050476      -1.48108399
H        1.21423547      -0.10262576      -2.78085399
C       -1.60193453      -3.46090076      -0.05601399
C       -2.18093453      -4.85990076      -0.24701399
H       -1.73793453      -2.89390076      -0.97501399
H       -2.13093453      -2.94890076       0.74898601
H       -0.53993453      -3.51690076       0.18998601
H       -3.21593453      -4.77790076      -0.56701399
H       -1.60944453      -5.43643876      -0.98930399
H       -2.15149453      -5.40854876       0.70593901
