26
Properties=species:S:1:pos:R:3 pbc="F F F"
C        2.26875359      -0.39330764       1.97243038
C       -0.77624641      -1.44630764       0.01043038
C       -0.21624641      -1.65530764      -1.24456962
C        0.03875359      -1.02330764       1.06043038
C        1.39475359      -0.87030764       0.85743038
C        1.12375359      -1.52030764      -1.44856962
C        1.91975359      -1.13130764      -0.39656962
H       -1.83824641      -1.58130764       0.16243038
H       -0.85124641      -1.96330764      -2.06456962
H       -0.39524641      -0.84230764       2.03243038
H        1.55475359      -1.71630764      -2.41956962
H        3.17275359      -0.98530764       1.96843038
H        1.76475359      -0.60030764       2.91843038
H        2.98275359      -1.02130764      -0.56156962
H        2.51632359       0.67782536       1.93522038
C       -2.28324641       2.06969236      -0.29756962
C       -1.42824641       2.37169236       0.95243038
C       -1.64524641       2.66169236      -1.58656962
H       -2.35924641       0.98769236      -0.41156962
H       -3.28924641       2.47269236      -0.16656962
H       -0.42624641       1.98369236       0.76043038
H       -1.65524641       3.75169236      -1.54356962
H       -0.60424641       2.33869236      -1.62156962
H       -1.81181641       1.87597336       1.85639038
H       -1.36762641       3.45773636       1.11624038
H       -2.11791641       2.33005436      -2.52283962
