23
Properties=species:S:1:pos:R:3 pbc="F F F"
C       -0.68860328       4.48005335       1.58330476
C       -0.12360328       0.25005335       1.06730476
C        0.30839672       1.13305335       0.08530476
C       -0.73760328       0.73405335       2.21630476
C        0.12739672       2.50005335       0.25830476
C       -0.91660328       2.10405335       2.38330476
C       -0.47560328       2.99905335       1.41330476
O        0.05039672      -1.08894665       0.90130476
H        0.35939672      -1.29094665      -0.00969524
H        0.78039672       0.75505335      -0.80969524
H       -1.10060328       0.03505335       2.94630476
H        0.46839672       3.18105335      -0.51169524
H       -1.39760328       2.47305335       3.27830476
H        0.07339672       5.01105335       1.01130476
H       -0.56060328       4.75805335       2.63130476
H       -1.67962728       4.79911335       1.22823476
C       -0.40860328      -3.91494665      -1.81069524
C        0.60039672      -2.87294665      -2.27369524
O        0.77339672      -1.85994665      -1.55869524
O        1.22839672      -3.06894665      -3.33669524
H       -1.38060328      -3.44894665      -1.64869524
H       -0.05860328      -4.32394665      -0.86769524
H       -0.49836568      -4.75799665      -2.51155524
