30
Properties=species:S:1:pos:R:3 pbc="F F F"
C        0.35451342      -1.13405332      -5.38014586
C       -0.10148658       0.93294668      -1.61814586
C       -0.23148658       1.65394668      -2.80514586
C        0.16751342      -0.42905332      -1.66714586
C       -0.08548658       1.01094668      -4.04214586
C        0.30851342      -1.06505332      -2.89514586
C        0.17051342      -0.36405332      -4.09414586
H       -0.21448658       1.43094668      -0.66414586
H       -0.43748658       2.71494668      -2.76814586
H        0.24251342      -1.00205332      -0.75714586
H       -0.14748658       1.59894668      -4.93014586
H        0.51451342      -2.12605332      -2.91714586
H       -0.25548658      -2.03705332      -5.32514586
H        1.39751342      -1.43905332      -5.41714586
H        0.12999682      -0.60683332      -6.31909586
C       -1.47248658       0.20894668       5.24285414
C        0.97751342      -0.27705332       1.75385414
C        0.12851342      -1.30805332       2.15785414
C        1.01551342       0.91594668       2.47085414
C       -0.67348658      -1.14205332       3.28385414
C        0.21051342       1.07594668       3.59285414
C       -0.63848658       0.04994668       4.00485414
H        1.62051342      -0.40505332       0.89485414
H        0.10551342      -2.23605332       1.60685414
H        1.66951342       1.71494668       2.15085414
H       -1.32448658      -1.94305332       3.59785414
H        0.24451342       2.00194668       4.14585414
H       -2.42248658      -0.31005332       5.11085414
H       -1.70148658       1.26694668       5.38285414
H       -0.97246158      -0.16356332       6.14906014
