12
Properties=species:S:1:pos:R:3 pbc="F F F"
C        1.81601781       0.79856763      -1.27175082
O        0.83901781       0.91056763      -0.24175082
H        0.40201781       1.76956763      -0.36275082
H        2.17501781       1.79656763      -1.52275082
H        2.66984781       0.20590763      -0.91156482
H        1.36133781       0.34746763      -2.16605382
C       -1.59898219      -0.96143237       1.41724918
O       -1.06898219      -0.84343237       0.10524918
H       -0.28798219      -0.24643237       0.13024918
H       -2.53198219      -1.52143237       1.36324918
H       -1.81798219       0.02656763       1.82424918
H       -0.90640019      -1.50314237       2.07821918
