41
Properties=species:S:1:pos:R:3 pbc="F F F"
C       -2.70528274       0.97494172      -2.29115447
C       -0.34028274      -0.12805828      -2.50315447
C       -1.47828274       0.57694172      -3.03015447
C        0.60171726      -0.27605828      -3.55015447
C       -1.17028274       0.84194172      -4.33215447
C       -0.02828274      -0.65905828      -1.24315447
C        1.18771726      -1.30805828      -1.06815447
C        2.10271726      -1.43305828      -2.12715447
C        1.81771726      -0.91805828      -3.37915447
N        0.05471726       0.32094172      -4.65815447
H       -0.72528274      -0.56005828      -0.42915447
H        1.43571726      -1.72105828      -0.09715447
H        3.04271726      -1.94605828      -1.96115447
H       -3.10428274       1.87894172      -2.75415447
H       -2.35728274       1.26994172      -1.30015447
H       -1.82028274       1.37294172      -5.02015447
H        0.46171726       0.35694172      -5.58715447
H        2.51471726      -1.02305828      -4.20115447
H       -3.52418274       0.24878712      -2.18115447
C       -2.19228274      -1.06505828       1.89384553
C       -3.29328274      -0.91405828       2.92884553
C       -0.79828274      -0.84905828       2.38484553
C       -0.00328274      -1.78705828       2.97784553
C       -0.03128274       0.35494172       2.32684553
C        1.24571726       0.07694172       2.89984553
C       -0.26628274       1.64594172       1.84784553
C        2.23171726       1.04494172       3.01384553
C        0.72271726       2.61094172       1.94384553
C        1.97271726       2.31094172       2.52484553
N        1.20671726      -1.23505828       3.29084553
H       -2.24628274      -2.07105828       1.47384553
H       -2.38028274      -0.36305828       1.08384553
H       -3.09428274      -1.60005828       3.75384553
H       -0.29428274      -2.81605828       3.16984553
H        1.96071726      -1.74205828       3.74384553
H       -1.21128274       1.86594172       1.38284553
H        3.18571726       0.80894172       3.46384553
H        0.53671726       3.59894172       1.54884553
H        2.73371726       3.07794172       2.58484553
H       -4.26531274      -1.16005728       2.47647553
H       -3.32070274       0.10779252       3.33513553
