27
Properties=species:S:1:pos:R:3 pbc="F F F"
C        0.96832591       0.38001456       2.41834019
C        1.48032591      -0.62798544       3.43634019
C        3.45432591       1.45001456       1.72734019
S        2.05032591       0.59901456       0.98534019
H       -0.01067409       0.05601456       2.06534019
H        0.83932591       1.34401456       2.91234019
H        0.76432591      -0.69198544       4.25734019
H        2.42432591      -0.26298544       3.83934019
H        3.90932591       0.82401456       2.49534019
H        4.19732591       1.65501456       0.95534019
H        3.12632591       2.39301456       2.16234019
H        1.64485191      -1.63245544       3.01925219
C       -3.91567409       0.24301456      -0.85865981
C       -0.36167409      -1.11098544      -0.79865981
C       -1.64567409      -0.73798544      -0.38765981
C        0.03732591      -0.89798544      -2.11465981
C       -2.53167409      -0.15198544      -1.28965981
C       -0.84967409      -0.32398544      -3.01765981
C       -2.12367409       0.05301456      -2.60365981
H        0.33432591      -1.54598544      -0.09965981
H       -1.94367409      -0.88598544       0.63634019
H        1.02932591      -1.18698544      -2.43665981
H       -0.56067409      -0.19198544      -4.04765981
H       -4.23067409       1.11401456      -1.43565981
H       -3.88367409       0.55201456       0.18734019
H       -2.79867409       0.51701456      -3.30765981
H       -4.66303409      -0.55593544      -0.97330691
