19
Properties=species:S:1:pos:R:3 pbc="F F F"
C       -2.49374965      -0.16090299       0.27575430
C       -2.48174965      -1.30790299       1.28375430
H       -1.83074965       0.64009701       0.60475430
H       -2.14274965      -0.51790299      -0.69424570
H       -3.50174965       0.23709701       0.16275430
H       -1.44674965      -1.62590299       1.41075430
H       -2.87970265      -0.97698899       2.25438791
H       -3.04783665      -2.16679399       0.89407230
C        1.09525035       0.54209701      -0.74624570
C        1.62525035       0.92109701       0.61875430
C        2.31525035       0.04809701      -1.48424570
H        0.63325035       1.39309701      -1.24824570
H        0.37825035      -0.27290299      -0.64324570
H        2.00025035       1.94509701       0.60375430
H        0.84225035       0.80009701       1.36875430
H        2.88825035       0.91209701      -1.82424570
H        2.05625035      -0.59390299      -2.32724570
H        2.45923535       0.22025001       0.77134030
H        2.87386035      -0.49967499      -0.71100570
