16
Properties=species:S:1:pos:R:3 pbc="F F F"
C       -1.84439490       0.42746209      -0.81737293
C       -2.00939490       1.81246209      -1.40837293
H       -1.36739490       0.50646209       0.15762707
H       -2.82439490      -0.03153791      -0.67937293
H       -1.23839490      -0.20053791      -1.47237293
H       -2.59039490       2.41846209      -0.71437293
H       -1.02832490       2.27748109      -1.58518293
H       -2.56046490       1.69892109      -2.35358293
C        1.38260510      -0.86553791       0.63662707
C        2.47860510      -1.36653791       1.58762707
H        1.80160510      -0.15753791      -0.08037293
H        0.95560510      -1.70653791       0.08962707
H        0.58060510      -0.38353791       1.19062707
H        2.00660510      -2.01453791       2.32662707
H        2.96588510      -0.52440721       2.10082707
H        3.21064510      -1.97620991       1.03769707
