19
Properties=species:S:1:pos:R:3 pbc="F F F"
C       -0.89707763       1.15814056       2.04957367
C       -1.13907763      -0.06585944       2.96957367
H       -1.38107763       2.04414056       2.46257367
H        0.16892237       1.35814056       1.95057367
H       -1.26807763       0.98414056       1.04257367
H       -0.64507763      -0.92785944       2.52057367
H       -2.21893763      -0.27195944       3.00731367
H       -0.69151763       0.09086056       3.96211367
C        0.46592237      -0.17685944      -1.19442633
C        1.40092237       0.65314056      -2.03542633
C        0.20092237      -1.57885944      -1.86042633
H        0.87192237      -0.31685944      -0.19142633
H       -0.49107763       0.32314056      -1.11142633
H        1.02392237       0.68314056      -3.05942633
H        1.06192237      -2.23285944      -1.74142633
H       -0.65607763      -2.04485944      -1.37442633
H       -0.00907763      -1.46485944      -2.92242633
H        1.44706237       1.68182056      -1.64851633
H        2.41049237       0.21657056      -2.04906633
