24
Properties=species:S:1:pos:R:3 pbc="F F F"
C        2.23706643      -1.80523036       1.56930976
C        3.14006643      -1.57023036       2.77330976
H        1.20006643      -1.92523036       1.88230976
H        2.30806643      -0.95523036       0.89230976
H        2.55706643      -2.70023036       1.03630976
H        4.15906643      -1.40323036       2.42530976
H        3.12567643      -2.44513036       3.43989976
H        2.82655643      -0.67150036       3.32465976
C       -2.05993357      -0.22623036      -3.13369024
C       -0.12193357       0.79276964       0.56630976
C       -1.43493357       0.43276964       0.54030976
C        0.59506643       0.84776964      -0.60569024
C       -2.06093357       0.10776964      -0.65169024
C       -0.01893357       0.50876964      -1.82069024
C       -1.35693357       0.11376964      -1.84569024
O        0.41406643       1.10776964       1.79130976
H       -1.99593357       0.51076964       1.44730976
H       -0.24193357       0.96176964       2.50330976
H        1.63006643       1.15076964      -0.58369024
H       -3.11293357      -0.15023036      -0.64669024
H        0.55106643       0.54976964      -2.73869024
H       -2.51493357      -1.21023036      -3.01269024
H       -1.33493357      -0.29123036      -3.94469024
H       -2.84339957       0.50619964      -3.37807024
