21
Properties=species:S:1:pos:R:3 pbc="F F F"
C        0.49728407      -1.88420671       1.63418853
C        0.99828407      -0.35220671      -0.27481147
N        0.41928407      -1.43120671       0.23518853
N        1.72228407       0.46779329       0.45118853
N        0.86528407      -0.11320671      -1.55381147
H       -0.06471593      -2.02720671      -0.43281147
H        1.83128407       0.31579329       1.44118853
H        2.15228407       1.27479329       0.02118853
H        0.30528407      -0.72220671      -2.13681147
H        1.32328407       0.69979329      -1.98481147
H        1.41428407      -1.53220671       2.11118853
H        0.52728407      -2.97620671       1.64918853
H       -0.37352593      -1.54806671       2.21616363
C       -1.96271593       2.02579329       0.34618853
C       -2.50871593       1.20379329      -0.81781147
H       -2.42971593       3.01279329       0.36018853
H       -2.19171593       1.51479329       1.28318853
H       -0.88071593       2.12779329       0.25918853
H       -2.05171593       0.21579329      -0.78081147
H       -2.28417593       1.67813329      -1.78454847
H       -3.60071593       1.09241329      -0.74615447
