27
Properties=species:S:1:pos:R:3 pbc="F F F"
C        0.59403986       0.62069234       0.13070955
C        0.45103986       2.03569234      -0.35429045
C        0.82603986       2.14769234       2.01570955
C        0.97403986      -1.65530766       1.94070955
C        0.88803986      -0.23030766       2.48570955
O        0.98103986      -0.01430766       3.70370955
N        0.71503986       0.75069234       1.60070955
H       -0.27896014       0.03069234      -0.14629045
H        1.50703986       0.18569234      -0.28129045
H       -0.59896014       2.31969234      -0.37729045
H        0.90303986       2.17369234      -1.33629045
H        1.65103986       2.27469234       2.71970955
H        1.26703986      -1.64930766       0.89270955
H        0.97575986       2.61863234       0.41696955
H        1.08370986       2.65504234       1.07431955
H       -0.08839014       2.54995234       2.47615955
H        1.74905986      -2.20575766       2.49418955
H       -0.01958014      -2.11724766       2.03730955
C       -0.02496014      -1.27430766      -3.31329045
C       -1.39596014      -0.86130766      -2.82629045
O       -2.02296014      -0.01630766      -3.44529045
N       -1.86796014      -1.47530766      -1.74829045
H       -0.17096014      -2.06230766      -4.05129045
H        0.53803986      -1.68830766      -2.47729045
H       -2.77796014      -1.22630766      -1.39529045
H       -1.29596014      -2.18030766      -1.29029045
H        0.56184986      -0.45162766      -3.74786045
