27
Properties=species:S:1:pos:R:3 pbc="F F F"
C        3.50841694      -0.72799898      -0.68588737
C        3.91341694      -0.23799898      -2.07988737
H        4.22441694      -0.41399898       0.07111263
H        2.54841694      -0.29599898      -0.41288737
H        3.42741694      -1.81499898      -0.68288737
H        3.90141694       0.85200102      -2.08888737
H        3.15241694      -0.58899898      -2.77488737
H        4.90739694      -0.59303898      -2.38964737
C       -0.01358306      -1.02299898      -1.73188737
C       -0.02258306      -2.54299898      -1.52488737
C       -0.53958306      -0.24699898      -0.55588737
C       -0.16858306      -0.58299898       0.75011263
C       -1.40058306       0.82200102      -0.72888737
C       -0.64958306       0.13100102       1.82611263
C       -1.90258306       1.53600102       0.36211263
C       -1.52458306       1.18900102       1.65511263
O       -1.98458306       1.84400102       2.76511263
H        0.99641694      -0.68899898      -1.94488737
H       -0.61558306      -0.78799898      -2.61288737
H        0.52241694      -2.78199898      -0.61288737
H        0.54941694      -1.36899898       0.93811263
H       -1.63558306       1.13700102      -1.72888737
H       -0.34058306      -0.15499898       2.82011263
H       -2.56758306       2.37500102       0.21311263
H       -1.30458306       1.88600102       3.44611263
H        0.48736694      -3.04990898      -2.35734737
H       -1.05466306      -2.91221898      -1.43276737
