26
Properties=species:S:1:pos:R:3 pbc="F F F"
C       -1.45722878      -3.03389221       1.40518914
C       -1.67522878      -0.99389221       0.02318914
N       -1.21722878      -0.23389221      -0.95081086
N       -1.04222878      -2.10989221       0.34418914
N       -2.76422878      -0.63589221       0.67118914
H       -0.41722878      -0.57589221      -1.47181086
H       -1.70522878       0.60710779      -1.21881086
H       -0.27722878      -2.38689221      -0.27181086
H       -3.21022878      -1.27889221       1.31318914
H       -3.24622878       0.24410779       0.47118914
H       -1.80822878      -3.95889221       0.94118914
H       -2.26322878      -2.63489221       2.02018914
H       -0.61432878      -3.26911921       2.07166614
C        1.29277122       2.31910779       1.42518914
C        1.72177122       1.17910779      -0.72181086
N        1.25877122       2.21610779      -0.03581086
N        1.63877122       1.16610779      -2.03681086
N        2.26077122       0.14610779      -0.09781086
H        0.87877122       2.99710779      -0.55281086
H        1.28877122       1.97110779      -2.53581086
H        2.06177122       0.40810779      -2.55281086
H        2.42177122       0.17410779       0.89218914
H        2.53277122      -0.68389221      -0.63281086
H        1.08277122       3.35010779       1.71818914
H        2.28277122       2.06010779       1.80618914
H        0.52681122       1.66287689       1.86412014
