21
Properties=species:S:1:pos:R:3 pbc="F F F"
C       -2.07968404      -2.02032375       0.83942369
C       -1.11268404      -0.95932375       1.34642369
O        0.02731596      -1.27532375       1.70742369
O       -1.47768404       0.22267625       1.36542369
H       -1.92668404      -2.12432375      -0.23557631
H       -3.10268404      -1.68032375       0.99642369
H       -1.92517404      -3.00516645       1.30440369
C        0.85831596       0.87867625      -1.24557631
C        1.24231596       1.96567625      -0.21157631
C        0.68131596       1.49767625      -2.61957631
C        1.89431596      -0.26632375      -1.24257631
H       -0.10568404       0.46467625      -0.94857631
H        2.19631596       2.39267625      -0.52457631
H        1.57131596       2.06767625      -2.88957631
H        0.54031596       0.72967625      -3.37457631
H       -0.18568404       2.15667625      -2.64257631
H        2.82531596       0.06167625      -1.70657631
H        2.10731596      -0.59832375      -0.22757631
H        1.35344596       1.53161325       0.79303369
H        0.50476596       2.78155525      -0.19271631
H        1.48577596      -1.13070675      -1.78657631
