12
Properties=species:S:1:pos:R:3 pbc="F F F"
C       -1.94946590       1.09919657       0.44040519
O       -1.21846590      -0.05680343       0.85040519
H       -0.46646590      -0.16780343       0.23640519
H       -2.91146590       1.10619657       0.95540519
H       -1.38211190       2.00225657       0.70982719
H       -2.12265790       1.04960657      -0.64474281
C        2.24953410      -0.35180343      -0.45159481
O        0.88153410      -0.60780343      -0.77559481
H        0.84953410      -1.47780343      -1.20059481
H        2.88553410      -0.94680343      -1.10759481
H        2.47324410       0.71565657      -0.59473781
H        2.44666410      -0.63834343       0.59197219
