20
Properties=species:S:1:pos:R:3 pbc="F F F"
C       -2.96682110      -0.65448939      -0.24186850
C       -0.83482110      -1.36948939      -1.26386850
N        0.46917890      -1.22848939      -1.37886850
N       -1.51782110      -0.58148939      -0.44786850
N       -1.45282110      -2.30248939      -1.96286850
H        0.95717890      -0.61748939      -0.72086850
H        1.00017890      -1.82748939      -1.98886850
H       -0.99282110       0.08451061       0.09913150
H       -2.43082110      -2.47948939      -1.81386850
H       -0.92782110      -2.90548939      -2.57686850
H       -3.23082110       0.06151061       0.53713150
H       -3.25382110      -1.64848939       0.10913150
H       -3.51950110      -0.40589149      -1.15987850
C        0.74217890       2.61951061       0.84213150
C        1.62517890       1.49351061       1.36713150
O        1.60717890       0.40151061       0.76113150
O        2.34417890       1.69751061       2.36613150
H        0.70217890       3.43151061       1.57113150
H       -0.27082110       2.23751061       0.70713150
H        1.10122890       3.00740361      -0.12255850
