27
Properties=species:S:1:pos:R:3 pbc="F F F"
C       -1.57947162      -0.87344280       1.46070393
C       -2.78747162      -1.80644280       1.61070393
C       -0.26447162      -1.43744280       2.00770393
H       -1.44947162      -0.69644280       0.40470393
H       -1.79247162       0.10055720       1.90570393
H       -3.04647162      -1.92244280       2.66470393
H       -0.05947162      -2.41544280       1.57070393
H        0.53852838      -0.76544280       1.71170393
H       -2.59280162      -2.78279280       1.14290393
H       -3.65365162      -1.39870280       1.06897393
H       -0.23623162      -1.51131280       3.10485393
C       -0.18647162      -0.00844280      -1.74829607
C       -1.55747162       0.40255720      -2.27329607
C        1.57352838       0.93355720      -0.28429607
N        0.38252838       1.01455720      -0.86029607
N        2.34152838      -0.11744280      -0.48229607
N        1.99752838       1.90655720       0.49670393
H       -0.25247162      -0.97444280      -1.24529607
H        0.47752838      -0.12444280      -2.60829607
H       -1.44447162       1.31055720      -2.86729607
H       -2.22547162       0.61355720      -1.43729607
H       -0.17947162       1.83355720      -0.66029607
H        1.99452838      -0.93444280      -0.97729607
H        3.24852838      -0.16544280      -0.04429607
H        1.38852838       2.67755720       0.73070393
H        2.88252838       1.82855720       0.97470393
H       -1.99103162      -0.39170280      -2.89874607
