33
Properties=species:S:1:pos:R:3 pbc="F F F"
C       -1.81329578      -0.85893250      -0.44300850
C       -2.61229578      -2.16593250      -0.64400850
C       -2.58629578       0.27406750       0.14799150
C       -3.97429578       0.37106750       0.03299150
C       -1.86129578       1.24406750       0.84699150
C       -4.66529578       1.45506750       0.63299150
C       -2.50329578       2.31906750       1.44399150
C       -3.88929578       2.44106750       1.31499150
H       -0.97229578      -1.07593250       0.21699150
H       -1.41829578      -0.53293250      -1.40600850
H       -3.42029578      -1.99193250      -1.35600850
H       -4.54929578      -0.37093250      -0.49900850
H       -0.79329578       1.15606750       0.95299150
H       -5.74129578       1.54006750       0.57599150
H       -1.93729578       3.05906750       1.99399150
H       -4.38729578       3.27706750       1.78199150
H       -3.02574578      -2.54220250       0.30334850
H       -1.94918578      -2.92021250      -1.09272950
C        5.56070422      -1.83593250      -0.63700850
C        1.80770422       0.24306750      -0.34700850
C        1.85970422      -1.08493250      -0.76300850
C        2.96270422       0.89706750       0.04799150
C        3.08670422      -1.76693250      -0.87200850
C        4.17970422       0.20906750      -0.05800850
C        4.24470422      -1.11793250      -0.50100850
H        0.86570422       0.76506750      -0.32400850
H        0.94770422      -1.59993250      -1.01700850
H        2.93170422       1.92206750       0.38899150
H        3.11070422      -2.78993250      -1.22200850
H        5.09270422       0.71706750       0.22199150
H        5.42770422      -2.90693250      -0.47500850
H        6.21270422      -1.46693250       0.15499150
H        6.02945422      -1.66221250      -1.61685450
