15
Properties=species:S:1:pos:R:3 pbc="F F F"
C        0.40121046       2.45504193       1.19054469
C        0.37421046       1.27704193       0.21954469
O       -0.67278954       0.59804193       0.11054469
O        1.41321046       1.01504193      -0.42845531
H        0.82521046       3.33504193       0.70254469
H        1.05421046       2.18504193       2.02254469
H       -0.59292954       2.69927993       1.59307169
C       -0.96778954      -2.93095807       0.06854469
N       -0.46178954      -2.04695807      -1.01445531
H        0.51921046      -2.20595807      -1.20645531
H       -0.97678954      -2.18395807      -1.87545531
H       -0.56578954      -1.06395807      -0.74045531
H       -0.80778954      -3.98295807      -0.19445531
H       -2.04278954      -2.77595807       0.20554469
H       -0.45536954      -2.71124507       1.01677969
