24
Properties=species:S:1:pos:R:3 pbc="F F F"
C        2.42430653       0.34190558       1.95483703
C       -1.22669347      -0.04809442       1.02083703
C       -1.17769347      -1.01009442       0.02483703
C       -0.06169347       0.36990558       1.65483703
C        1.16630653      -0.16709442       1.28683703
C        0.03330653      -1.59909442      -0.31216297
C        1.18930653      -1.17709442       0.31783703
O       -2.35069347      -1.36909442      -0.58016297
H       -2.18169347       0.34290558       1.32883703
H       -0.11969347       1.10490558       2.44383703
H        0.07430653      -2.38209442      -1.05316297
H       -2.14169347      -1.89309442      -1.37516297
H        2.89330653      -0.48409442       2.48983703
H        2.14130653       1.08690558       2.69983703
H        2.12330653      -1.65309442       0.06383703
H        3.15831153       0.79967558       1.27536703
C       -0.24169347       2.14390558      -1.65816297
C        0.47230653       2.14890558      -3.00316297
H       -0.68469347       3.11990558      -1.45616297
H       -1.01969347       1.38690558      -1.67216297
H        0.46030653       1.88990558      -0.86216297
H       -0.16969347       2.64790558      -3.72716297
H        1.42521353       2.69352558      -2.92997297
H        0.63563153       1.11692558      -3.34715297
