17
Properties=species:S:1:pos:R:3 pbc="F F F"
C        1.85134015      -1.83965030      -0.48994622
C        2.92634015      -2.90965030      -0.62894622
H        2.08134015      -1.12165030       0.28805378
H        1.70334015      -1.32765030      -1.43994622
H        0.91634015      -2.33165030      -0.22294622
H        2.48634015      -3.77365030      -1.12594622
H        3.28463015      -3.22089030       0.36340378
H        3.76420015      -2.55618930      -1.24786122
C       -0.83865985      -0.00565030       1.19805378
C       -1.80665985       2.50134970       0.42405378
S       -0.98165985       1.05134970      -0.27494622
H       -1.81065985      -0.10365030       1.68005378
H       -0.48765985      -0.99465030       0.91005378
H       -0.12965985       0.43434970       1.89805378
H       -2.71965985       2.17934970       0.92605378
H       -2.08965985       3.15234970      -0.40494622
H       -1.18516985       3.07834970       1.12464278
