16
Properties=species:S:1:pos:R:3 pbc="F F F"
C       -1.51949404       0.03751408       1.23333107
C       -1.15649404      -1.43148592       1.33133107
H       -2.49049404       0.22051408       1.69733107
H       -0.77249404       0.65751408       1.72533107
H       -1.55749404       0.37051408       0.19633107
H       -0.19449404      -1.58948592       0.84233107
H       -1.90640404      -2.06343592       0.83306007
H       -1.06152404      -1.70201592       2.39330707
C        1.70050596       0.22251408      -0.81866893
C        0.97450596       1.17151408      -1.74966893
H        2.74950596       0.49951408      -0.71666893
H        1.23950596       0.24951408       0.16933107
H        1.63950596      -0.79248592      -1.20966893
H       -0.05949404       0.83751408      -1.84966893
H        1.46254596       1.13525408      -2.73481093
H        0.96296596       2.17641408      -1.30240593
