23
Properties=species:S:1:pos:R:3 pbc="F F F"
C       -2.77211070       0.22724030       0.43544513
C       -1.30611070       0.51024030       0.50544513
C       -0.75111070       1.46324030      -0.34055487
C       -0.50011070      -0.11375970       1.45844513
C        0.60388930       1.77024030      -0.26855487
C        0.84388930       0.19524030       1.54844513
C        1.40288930       1.13324030       0.67744513
H       -2.98611070      -0.73675970       0.90044513
H       -3.05411070       0.15824030      -0.61355487
H       -1.37211070       1.96924030      -1.06655487
H       -0.93111070      -0.83975970       2.13344513
H        1.02988930       2.50724030      -0.93455487
H        1.46688930      -0.28875970       2.28844513
H        2.45488930       1.37524030       0.74244513
H       -3.37107070       1.01648030       0.91331213
C        0.55188930      -1.86575970      -1.74055487
C        1.88388930      -2.62075970      -1.75955487
H        0.58688930      -0.99975970      -2.39755487
H       -0.25011070      -2.52375970      -2.07255487
H        0.33588930      -1.53075970      -0.72855487
H        2.04288930      -3.01175970      -2.76555487
H        2.71674930      -1.95619970      -1.48624987
H        1.84286930      -3.46991970      -1.06151987
