12
Properties=species:S:1:pos:R:3 pbc="F F F"
C       -0.76077030       0.75646658       1.89048499
O       -0.06177030      -0.33753342       1.33048499
H        0.53622970       0.01346658       0.65548499
H       -0.98477030       1.46746658       1.09748499
H       -1.71010030       0.43503658       2.34376599
H       -0.12684030       1.25966658       2.63542099
C       -0.18477030      -0.06753342      -2.01751501
O        0.94922970      -0.29753342      -1.17451501
H        0.92022970      -1.25653342      -1.02551501
H       -1.08377030      -0.17053342      -1.41151501
H       -0.15819030       0.94687658      -2.44210021
H       -0.21181030      -0.82475342      -2.81493751
