35
Properties=species:S:1:pos:R:3 pbc="F F F"
C       -1.47153754       0.47058528      -2.05117195
C       -2.73153754      -0.14741472      -2.70017195
C       -1.69353754       1.21658528      -0.77417195
C       -2.35953754       2.44558528      -0.78317195
C       -1.20253754       0.72358528       0.42882805
C       -2.56653754       3.14158528       0.39382805
C       -1.41153754       1.40458528       1.60282805
C       -2.07853754       2.63258528       1.58982805
O       -2.27953754       3.29458528       2.75182805
H       -0.76153754      -0.32841472      -1.85617195
H       -1.00053754       1.14158528      -2.77017195
H       -3.25653754       0.64158528      -3.24017195
H       -2.73553754       2.84658528      -1.71617195
H       -0.65253754      -0.20541472       0.44182805
H       -3.09653754       4.08458528       0.37982805
H       -1.04153754       1.00758528       2.53782805
H       -2.76053754       4.12058528       2.61482805
H       -3.42130754      -0.62065472      -1.98584695
H       -2.39775354      -0.89969472      -3.43000795
C       -0.03853754      -3.58941472       0.59282805
C        1.20946246      -2.07341472      -0.97117195
C        1.12946246      -2.72141472       0.26682805
C        2.30246246      -1.27041472      -1.29217195
C        2.17946246      -2.58241472       1.16382805
C        3.32246246      -1.13441472      -0.38517195
C        3.27846246      -1.77541472       0.84782805
O        4.38646246      -0.35841472      -0.73017195
H        0.42046246      -2.20641472      -1.69917195
H        2.35746246      -0.77041472      -2.24817195
H        0.30146246      -4.60341472       0.79282805
H       -0.66353754      -3.64241472      -0.29717195
H        2.16946246      -3.10941472       2.10482805
H        4.09446246      -1.67141472       1.54782805
H        5.04846246      -0.32841472      -0.03017195
H       -0.64006754      -3.22358472       1.43800805
