15
Properties=species:S:1:pos:R:3 pbc="F F F"
C       -1.63023157      -2.66004887       0.27079778
N       -0.83823157      -1.95704887       1.34979778
H       -1.45623157      -1.49804887       2.01079778
H       -0.26923157      -2.60904887       1.87879778
H       -0.23723157      -1.23304887       0.94779778
H       -2.34723157      -3.35904887       0.71679778
H       -0.96023157      -3.22604887      -0.38620222
H       -2.17221157      -1.91070887      -0.32481222
C        0.48976843       1.95695113      -1.73220222
C        0.67176843       1.17795113      -0.39520222
O        0.79976843      -0.08604887      -0.32420222
O        0.66976843       1.90795113       0.61779778
H        1.37876843       2.56995113      -1.89320222
H       -0.37923157       2.61595113      -1.66420222
H        0.35104843       1.26940113      -2.57957222
