33
Properties=species:S:1:pos:R:3 pbc="F F F"
C       -2.68801331      -1.85564055      -4.21690379
C       -0.89001331       0.76335945      -1.31290379
C       -1.60601331      -0.33464055      -0.87990379
C       -0.76901331       1.01035945      -2.66790379
C       -2.19301331      -1.19864055      -1.81690379
C       -1.33301331       0.13435945      -3.58490379
C       -2.06601331      -0.96864055      -3.18190379
H       -0.43401331       1.43135945      -0.59790379
H       -1.70301331      -0.53164055       0.17709621
H       -0.22001331       1.87535945      -3.01390379
H       -2.75601331      -2.05164055      -1.46590379
H       -1.22401331       0.33935945      -4.63690379
H       -3.01601331      -1.23964055      -5.05590379
H       -3.56001331      -2.31764055      -3.75490379
H       -2.03043931      -2.65775155      -4.58325379
C        0.05898669       1.81335945       2.28509621
C        0.29898669       2.66335945       3.54709621
C        1.01198669       0.66235945       2.11509621
C        2.10698669       0.79935945       1.27909621
C        0.81698669      -0.53164055       2.78109621
C        3.00698669      -0.25164055       1.10809621
C        1.73098669      -1.57464055       2.62209621
C        2.80398669      -1.42964055       1.78109621
H       -0.95501331       1.43035945       2.28409621
H        0.15198669       2.45435945       1.40709621
H        1.37298669       2.74435945       3.70209621
H        2.27498669       1.73035945       0.75509621
H       -0.03301331      -0.64664055       3.43709621
H        3.85298669      -0.15064055       0.44509621
H        1.58298669      -2.50664055       3.15109621
H        3.50598669      -2.23564055       1.64209621
H       -0.16553631       2.22228945       4.44134621
H       -0.10990731       3.66818945       3.36512621
