17
Properties=species:S:1:pos:R:3 pbc="F F F"
C       -0.80653804      -1.39186041       1.88354844
C       -1.21553804      -0.08386041       2.58454844
H       -1.65753804      -2.07286041       1.84354844
H       -0.48253804      -1.20686041       0.87454844
H        0.02746196      -1.86886041       2.39254844
H       -0.35753804       0.58413959       2.57654844
H       -1.52619804      -0.28316041       3.62077744
H       -2.03017804       0.38360959       2.01198244
C        0.26346196       0.49213959      -1.09345156
C        0.02246196       0.82913959      -2.56845156
O        1.61546196       0.16613959      -0.81445156
H       -0.02453804       1.35113959      -0.48445156
H       -0.39153804      -0.34186041      -0.87045156
H       -0.96053804       1.29713959      -2.63545156
H        1.69546196      -0.11886041       0.10254844
H       -0.00165804      -0.08450041      -3.18056096
H        0.75611196       1.56423959      -2.93093476
