18
Properties=species:S:1:pos:R:3 pbc="F F F"
C        2.80745649       0.66914709      -1.64263077
C        1.31345649       0.90714709      -1.46763077
O        0.47345649       0.06514709      -1.82263077
N        0.96245649       2.04914709      -0.92363077
H        3.02545649      -0.32485291      -1.25363077
H        3.37945649       1.39114709      -1.05963077
H       -0.01154351       2.22914709      -0.71563077
H        1.68145649       2.76014709      -0.75763077
H        3.10375649       0.73156709      -2.70013277
C       -2.49154351      -1.41785291       2.29136923
C       -1.30654351      -0.90085291       1.46836923
O       -0.43854351      -0.16385291       1.95736923
N       -1.29254351      -1.25885291       0.19036923
H       -0.58054351      -0.87285291      -0.41963077
H       -2.02054351      -1.85885291      -0.17763077
H       -2.76954351      -2.41285291       1.94136923
H       -3.33454351      -0.76685291       2.08236923
H       -2.28740351      -1.44454291       3.37193123
