23
Properties=species:S:1:pos:R:3 pbc="F F F"
C       -0.07512863      -1.30082134      -2.84442266
C        0.22187137      -2.76182134      -2.49942266
H       -0.61112863      -1.23182134      -3.79242266
H       -0.68712863      -0.85082134      -2.06442266
H        0.83787137      -0.70982134      -2.89442266
H        0.80587137      -2.77682134      -1.57742266
H        0.81964737      -3.23574734      -3.29192266
H       -0.70685563      -3.32822334      -2.33616266
C       -1.58512863       2.51517866       1.15657734
C        1.15987137      -0.72782134       0.65257734
C        1.36287137       0.45017866      -0.02042266
C        0.08687137      -0.87282134       1.49357734
C        0.46287137       1.50117866       0.15057734
C       -0.82712863       0.17017866       1.65257734
C       -0.63212863       1.36417866       0.98657734
H        1.86187137      -1.53382134       0.51357734
H        2.20887137       0.55117866      -0.68342266
H       -0.06112863      -1.80482134       2.02257734
H        0.63087137       2.43217866      -0.37342266
H       -1.67712863       0.05517866       2.30857734
H       -2.59912863       2.13217866       1.15557734
H       -1.49212863       3.15617866       0.27857734
H       -1.41374163       3.12217866       2.05778734
