27
Properties=species:S:1:pos:R:3 pbc="F F F"
C        0.01322907      -1.13580284      -4.10978140
C        0.76922907      -0.50180284      -0.45078140
C        2.07522907      -0.96880284      -0.33778140
C        0.11222907      -0.55280284      -1.67778140
C        0.75422907      -1.05780284      -2.80678140
C        2.71822907      -1.49480284      -1.45578140
C        2.05522907      -1.54380284      -2.68578140
H        0.24122907      -0.15480284       0.41721860
H        2.57622907      -0.95080284       0.62121860
H       -0.91077093      -0.22580284      -1.73678140
H        3.71122907      -1.89780284      -1.36778140
H       -0.96677093      -0.66980284      -3.99078140
H       -0.15777093      -2.19280284      -4.32678140
H        2.55822907      -1.95080284      -3.54778140
H        0.52030007      -0.68101284      -4.97352140
C       -3.07977093       1.90119716       1.06621860
C        0.15422907       1.20219716       2.56221860
C       -1.91777093       1.35619716       1.84221860
C       -1.88377093       0.41119716       2.81721860
N       -0.63677093       1.84619716       1.71621860
N       -0.57477093       0.32519716       3.24221860
H        1.21922907       1.36119716       2.68121860
H       -0.21477093      -0.30180284       3.95421860
H       -2.72677093      -0.15580284       3.18421860
H       -3.79877093       1.09619716       0.91421860
H       -2.74077093       2.22819716       0.08521860
H       -3.57160293       2.73918716       1.58184860
