30
Properties=species:S:1:pos:R:3 pbc="F F F"
C        2.79001012      -0.72451243       1.94321072
C       -0.71598988      -0.54351243       0.59421072
C        0.36401012       0.05048757       1.30121072
C        1.42901012      -0.91351243       1.34221072
C        0.97201012      -2.00651243       0.66521072
C       -1.91798988       0.11448757       0.38021072
C       -2.04898988       1.39948757       0.87821072
C        0.20701012       1.35148757       1.79821072
C       -1.00198988       2.01448757       1.58321072
N       -0.30998988      -1.79551243       0.22321072
H       -0.88998988      -2.48751243      -0.26478928
H       -2.71698988      -0.36251243      -0.16278928
H        1.54601012      -2.90251243       0.47321072
H       -2.97598988       1.93748757       0.72921072
H        1.01801012       1.82948757       2.31921072
H        3.04101012      -1.57751243       2.57521072
H        2.77701012       0.17048757       2.56721072
H       -1.13898988       3.01648757       1.96621072
H        3.54453012      -0.60307243       1.15204112
C       -0.51298988       0.65048757      -3.05578928
C        0.78001012       1.39748757      -3.33978928
C       -0.34598988      -0.86251243      -3.15978928
H       -0.85498988       0.90148757      -2.05078928
H       -1.27998988       0.98348757      -3.75878928
H        0.56801012       2.46748757      -3.34678928
H        1.14201012       1.12448757      -4.32878928
H        0.45001012      -1.20451243      -2.49078928
H       -1.27598988      -1.32351243      -2.80578928
H        1.53327012       1.18723757      -2.56622928
H       -0.15698988      -1.17849243      -4.19633728
