20
Properties=species:S:1:pos:R:3 pbc="F F F"
C       -0.66504569      -1.76858493       2.17939887
C        0.43395431      -0.28858493       0.35839887
C       -0.05804569      -0.52258493       1.60239887
C        0.60095431       1.57741507       1.51939887
N        0.82195431       1.03941507       0.32439887
N       -0.00004569       0.67141507       2.28539887
H        0.50795431      -1.01258493      -0.44060113
H        1.20795431       1.53741507      -0.47160113
H       -0.08504569      -2.09458493       3.03139887
H       -0.59404569      -2.55758493       1.43239887
H        0.78095431       2.61241507       1.78439887
H       -1.71330569      -1.63432093       2.48454887
C       -0.38704569      -0.20258493      -3.00860113
C       -0.64404569      -0.37858493      -4.46860113
H       -1.14904569      -0.70358493      -2.41160113
H        0.57895431      -0.64558493      -2.76760113
H       -0.35604569       0.85741507      -2.75560113
H       -0.75804569      -1.43758493      -4.69260113
H        0.24495431      -0.02058493      -4.98260113
H       -1.51570569       0.19434507      -4.81784113
