15
Properties=species:S:1:pos:R:3 pbc="F F F"
C       -2.12716702       1.92544495      -0.84052829
O       -1.42816702       0.83144495      -1.40052829
H       -0.83016702       1.18244495      -2.07552829
H       -2.35116702       2.63644495      -1.63352829
H       -3.07649702       1.60401495      -0.38724729
H       -1.49323702       2.42864495      -0.09559229
C        1.80983298      -0.25255505      -0.42452829
C        0.86683298      -0.74855505       0.63647171
O       -0.35416702      -0.64155505       0.53047171
N        1.44183298      -1.33155505       1.67947171
H        2.83383298      -0.39455505      -0.09252829
H        1.64483298       0.81844495      -0.55452829
H        0.85483298      -1.70955505       2.41747171
H        2.45283298      -1.32055505       1.76847171
H        1.67086298      -0.77027305      -1.38507829
