19
Properties=species:S:1:pos:R:3 pbc="F F F"
C        1.09288109      -0.30336552       0.73829185
C        2.29288109       0.62263448       0.63929185
C        1.42688109      -1.67936552       0.17129185
H        0.79688109      -0.40036552       1.78629185
H        0.28088109       0.13963448       0.16729185
H        2.60588109       0.72663448      -0.40070815
H        3.11188109       0.16963448       1.20229185
H        1.66688109      -1.58036552      -0.89270815
H        2.32388109      -2.05036552       0.68029185
H        2.07314109       1.61616148       1.05716385
H        0.60288109      -2.39398852       0.31392085
C       -2.39411891      -0.08236552      -0.85470815
C       -2.35411891       1.42463448      -0.64470815
H       -1.76011891      -0.58036552      -0.12870815
H       -3.41011891      -0.45636552      -0.71170815
H       -2.05411891      -0.33136552      -1.86170815
H       -1.41911891       1.80763448      -1.05270815
H       -3.20459891       1.87697348      -1.17580915
H       -2.38166891       1.66893648       0.42746585
