13
Properties=species:S:1:pos:R:3 pbc="F F F"
C       -2.28057186      -0.51893800       0.88322309
O       -1.66957186       0.46406200       1.70322309
H       -0.74157186       0.46506200       1.39622309
H       -1.56357186      -1.31793800       0.69222309
H       -3.15060486      -0.93516700       1.41218009
H       -2.58387086      -0.09244700      -0.08430691
C        1.38442814       1.21506200      -1.40177691
C        1.03742814      -0.06293800      -0.66277691
O        0.85342814       0.02706200       0.56922309
O        0.93742814      -1.13793800      -1.30277691
H        2.45342814       1.39706200      -1.28277691
H        0.83742814       2.06006200      -0.97577691
H        1.14023514       1.14477500      -2.47202691
