18
Properties=species:S:1:pos:R:3 pbc="F F F"
C        0.60391070       0.22747642      -1.16029895
C        1.60691070       0.55947642      -2.24129895
C        1.05891070       0.48347642       0.25870105
O        2.24691070       0.77147642       0.50470105
O        0.20291070       0.36247642       1.16170105
H       -0.33008930       0.76047642      -1.35029895
H        0.38191070      -0.83852358      -1.25429895
H        1.22191070       0.17047642      -3.18429895
H        2.53991070       0.03347642      -2.03629895
H        1.81019070       1.63300642      -2.36861895
C       -2.34408930      -1.70552358       0.40870105
C       -3.25108930      -0.63252358       1.00670105
H       -1.76608930      -1.30152358      -0.42029895
H       -1.66008930      -2.07152358       1.17470105
H       -2.94908930      -2.53952358       0.05170105
H       -3.76908930      -1.07552358       1.85670105
H       -4.00181330      -0.26182358       0.29326105
H       -2.65202330       0.21426642       1.37284105
