20
Properties=species:S:1:pos:R:3 pbc="F F F"
C        0.03105375      -2.52657548       1.40728564
C        1.29705375       0.81942452       0.74728564
C        0.63805375      -1.28057548       0.83028564
C        1.13005375      -1.04657548      -0.41371436
N        0.69605375      -0.08657548       1.51328564
N        1.51805375       0.28142452      -0.44771436
H        1.47705375       1.85442452       1.01228564
H        1.90405375       0.77942452      -1.24371436
H        1.20405375      -1.77057548      -1.21271436
H        0.61105375      -2.85257548       2.25928564
H        0.10205375      -3.31557548       0.66028564
H       -1.01720625      -2.39231148       1.71243564
C       -1.76794625       1.85642452      -1.17771436
C       -3.05594625       1.70842452      -2.08071436
H       -1.90594625       1.35742452      -0.22071436
H       -0.91494625       1.40942452      -1.68571436
H       -1.56394625       2.91142452      -0.99971436
H       -3.17494625       0.64342452      -2.28971436
H       -3.95943725       2.05254452      -1.55603436
H       -2.94226625       2.20920452      -3.05349436
