18
Properties=species:S:1:pos:R:3 pbc="F F F"
C       -2.22917303       1.65718420       2.29905126
O       -2.22417303       0.70818420       1.23505126
H       -1.31117303       0.63318420       0.89805126
H       -1.24317303       1.67318420       2.76805126
H       -2.45976303       2.66282420       1.91757826
H       -2.96591303       1.35382420       3.05746026
C       -0.80317303      -0.25581580      -2.12694874
C        0.35982697      -0.38781580      -1.18994874
C        1.46882697      -0.24081580       0.70505126
C        1.56082697      -0.99981580      -1.36094874
N        0.32482697       0.08118420       0.10805126
N        2.23482697      -0.89481580      -0.16294874
H        1.72982697      -0.01281580       1.73205126
H       -1.68617303       0.01118420      -1.55194874
H       -0.97517303      -1.24681580      -2.55094874
H        3.15582697      -1.27081580       0.03805126
H        1.90282697      -1.49881580      -2.25894874
H       -0.66901303       0.46663420      -2.94552874
