16
Properties=species:S:1:pos:R:3 pbc="F F F"
C        1.13518588       1.50422229      -0.19369725
C        1.01518588       2.81522229      -0.97769725
H        1.96818588       1.52022229       0.50930275
H        0.22018588       1.32422229       0.37030275
H        1.23918588       0.65622229      -0.86969725
H        0.16718588       2.74022229      -1.65869725
H        1.91569588       3.00446529      -1.58041725
H        0.83680588       3.65556129      -0.29066725
C       -0.70881412      -1.49577771       0.46930275
C       -1.43381412      -2.82177771       0.69930275
H       -0.36381412      -1.43077771      -0.56369725
H       -1.38881412      -0.66677771       0.67130275
H        0.14718588      -1.41777771       1.14130275
H       -1.77281412      -2.84177771       1.73430275
H       -0.74870412      -3.66504671       0.52748275
H       -2.31255412      -2.90126871       0.04241275
