16
Properties=species:S:1:pos:R:3 pbc="F F F"
C       -1.46613181       1.51265121      -0.86462677
C       -2.47013181       0.44265121      -0.27062677
H       -1.86013181       2.50865121      -0.67862677
H       -0.50513181       1.41365121      -0.36362677
H       -1.31413181       1.35365121      -1.93262677
H       -2.09713181      -0.55534879      -0.49362677
H       -3.48902181       0.55729121      -0.66901277
H       -2.54362181       0.54208121       0.82240223
C        1.31586819      -0.67434879       0.32537323
C        2.62586819      -1.28234879       0.80437323
H        0.52686819      -1.42734879       0.30237323
H        1.00586819       0.11165121       1.01337323
H        1.43186819      -0.24934879      -0.67362677
H        2.48386819      -1.71634879       1.78837323
H        2.94024819      -2.06140879       0.09428623
H        3.35523819      -0.46054879       0.85595923
