26
Properties=species:S:1:pos:R:3 pbc="F F F"
C        0.48476938       2.70201534      -0.10398812
C       -0.63523062       0.64701534      -0.99598812
C        0.53576938       1.34501534      -0.69298812
C       -0.57923062      -0.57198466      -1.69098812
C        1.76176938       0.81601534      -1.07098812
C        0.68176938      -1.08998466      -2.06998812
C        1.84376938      -0.37798466      -1.74398812
H       -1.59923062       1.06301534      -0.74298812
H       -1.48923062      -1.10098466      -1.94198812
H        1.42576938       2.91301534       0.40601188
H       -0.30623062       2.73801534       0.64401188
H        2.66876938       1.37101534      -0.87298812
H        0.74476938      -2.01798466      -2.62298812
H        2.79876938      -0.73198466      -2.09198812
H        0.29919538       3.47297134      -0.86634612
C       -1.50523062      -0.84198466       2.04301188
C       -1.95723062      -0.87198466       3.50401188
C       -0.21423062      -1.63698466       1.82101188
H       -2.29823062      -1.22098466       1.39601188
H       -1.29923062       0.18601534       1.75501188
H       -2.13323062      -1.90298466       3.81401188
H        0.23476938      -1.34898466       0.87301188
H        0.51376938      -1.44298466       2.60801188
H       -2.86912162      -0.27425566       3.64952648
H       -1.18536362      -0.41700466       4.14214638
H       -0.47113062      -2.70568766       1.77770588
