25
Properties=species:S:1:pos:R:3 pbc="F F F"
C       -2.55599556      -2.89139440      -1.54471380
C       -2.30599556      -1.43239440      -1.85771380
O       -2.84799556      -0.53039440      -1.22271380
N       -1.44399556      -1.18839440      -2.82071380
H       -2.66899556      -3.43739440      -2.48271380
H       -3.48399556      -2.98639440      -0.97971380
H       -1.25699556      -0.22639440      -3.06471380
H       -1.03799556      -1.94239440      -3.35171380
H       -1.72407156      -3.32110140      -0.96743080
C        0.47300444      -1.65139440       2.39828620
C        0.33600444      -0.06139440       0.46828620
C        0.91300444      -0.39939440       1.68728620
C        0.68100444       1.11360560      -0.18871380
C        1.60200444       1.98760560       0.38328620
C        1.80600444       0.49560560       2.27828620
C        2.13300444       1.68660560       1.62828620
O        1.96700444       3.14560560      -0.24871380
H       -0.38099556      -0.72839440       0.01328620
H        0.23600444       1.34560560      -1.14571380
H        1.11700444      -1.84139440       3.25928620
H        0.56500444      -2.49339440       1.71128620
H        2.23100444       0.27560560       3.24928620
H        1.52700444       3.23560560      -1.10271380
H        2.77100444       2.40860560       2.09128620
H       -0.56992856      -1.55011740       2.73300150
