27
Properties=species:S:1:pos:R:3 pbc="F F F"
C        2.51946927      -2.66948840      -1.29859853
C        0.47346927      -0.57948840       1.13440147
C        1.03346927      -1.67748840       0.48140147
C        0.78646927       0.71151160       0.70440147
C        1.90146927      -1.49248840      -0.59759853
C        1.64846927       0.89951160      -0.36959853
C        2.19946927      -0.19848840      -1.01259853
O        0.25946927       1.80151160       1.32940147
H       -0.19453073      -0.73348840       1.97140147
H        0.79046927      -2.67948840       0.81040147
H       -0.27953073       1.57351160       2.09640147
H        1.89646927       1.89551160      -0.69859853
H        2.93346927      -2.35848840      -2.25859853
H        1.73146927      -3.39348840      -1.49759853
H        2.89446927      -0.05048840      -1.82159853
H        3.30209927      -3.16411840      -0.70460553
C       -2.69553073       0.51151160       0.01440147
C       -2.70853073       1.03951160      -1.41759853
N       -3.85553073       1.02551160       0.79240147
H       -2.71553073      -0.58448840      -0.00859853
H       -1.76353073       0.82151160       0.48940147
H       -2.69953073       2.13151160      -1.39359853
H       -3.62553073       0.71851160      -1.91859853
H       -4.73553073       0.74051160       0.37740147
H       -3.84753073       0.66951160       1.74140147
H       -3.85153073       2.03751160       0.84840147
H       -1.84187073       0.70535160      -2.00686953
