27
Properties=species:S:1:pos:R:3 pbc="F F F"
C       -2.76676529       1.89702506      -1.77177961
C       -0.46976529      -0.23897494       0.28922039
C       -0.96776529       0.17702506      -0.96877961
C       -1.95576529       1.18702506      -0.72877961
C       -2.03776529       1.32302506       0.62122039
C        0.50223471      -1.21297494       0.40922039
C        0.99323471      -1.77697494      -0.75277961
C        0.53523471      -1.37297494      -2.00277961
C       -0.44876529      -0.40997494      -2.12477961
N       -1.14976529       0.47402506       1.23922039
H        0.84023471      -1.53897494       1.37922039
H        1.76623471      -2.52697494      -0.69777961
H       -1.05576529       0.39702506       2.24722039
H        0.95823471      -1.81297494      -2.89477961
H       -2.71276529       2.00002506       1.13522039
H       -0.79376529      -0.09697494      -3.09877961
H       -2.10276529       2.27602506      -2.55077961
H       -3.26176529       2.74602506      -1.30877961
H       -3.50454229       1.21627706      -2.22152061
C        3.41323471      -0.83597494       2.20122039
C        3.59623471       0.56002506       2.79522039
H        3.17423471      -0.77997494       1.14122039
H        4.33923471      -1.39297494       2.30922039
H        2.62623471      -1.35697494       2.74122039
H        4.44723471       1.03902506       2.31522039
H        3.85623471       0.42902506       3.84322039
H        2.71064471       1.20077406       2.67208239
