34
Properties=species:S:1:pos:R:3 pbc="F F F"
C        0.77214071      -0.66041878      -6.21762688
C        0.44514071      -1.46741878      -2.52162688
C        0.57514071      -2.85541878      -2.52362688
C        0.52014071      -0.76141878      -3.72062688
C        0.72614071      -1.42841878      -4.92762688
C        0.78414071      -3.53241878      -3.72562688
C        0.86214071      -2.82141878      -4.92362688
H        0.28114071      -0.93841878      -1.59862688
H        0.51214071      -3.40741878      -1.59462688
H        0.40114071       0.31058122      -3.72062688
H        0.88714071      -4.60841878      -3.72762688
H        1.81914071      -0.56941878      -6.51062688
H        0.37214071       0.33958122      -6.04962688
H        1.05814071      -3.37241878      -5.82962688
H        0.20683071      -1.13869878      -7.03106688
C        1.29714071       2.78658122       4.78637312
C       -1.40685929       1.19658122       2.72537312
C       -0.02785929       1.43058122       2.98137312
C        0.05314071       2.30358122       4.12237312
C       -1.22685929       2.56158122       4.49937312
C       -0.88585929      -0.20541878       0.87737312
C       -1.84585929       0.38558122       1.68237312
C        0.48314071       0.00458122       1.10537312
C        0.92214071       0.81658122       2.15237312
N       -2.10485929       1.90258122       3.67037312
H       -1.20285929      -0.83141878       0.05437312
H       -2.90085929       0.22158122       1.51237312
H        1.21114071      -0.48141878       0.47137312
H        1.97714071       0.94758122       2.34137312
H       -3.11385929       1.92758122       3.77237312
H       -1.51385929       3.18458122       5.34137312
H        1.20814071       3.85358122       4.99437312
H        2.12514071       2.65558122       4.08937312
H        1.52645071       2.23998122       5.71300312
