19
Properties=species:S:1:pos:R:3 pbc="F F F"
C       -0.98681425       0.45268205      -0.76513731
C       -1.63181425       0.20368205      -2.09613731
C       -0.27781425       1.77968205      -0.93113731
H       -0.24581425      -0.31331795      -0.59113731
H       -1.71281425       0.46668205       0.04286269
H       -1.63981425      -0.86431795      -2.32213731
H       -2.64681425       0.59868205      -2.07413731
H        0.55018575       1.88968205      -0.22913731
H       -0.99381425       2.58868205      -0.78513731
H       -1.01651425       0.76270305      -2.81648731
H        0.05840575       1.77824805      -1.97849731
C        1.49518575      -0.44231795       1.80486269
C        1.32518575      -1.96431795       1.94686269
H        0.56118575       0.06068205       2.05586269
H        2.28218575      -0.09831795       2.47586269
H        1.77118575      -0.19831795       0.78186269
H        2.30118575      -2.39531795       1.73086269
H        0.59099575      -2.35670735       1.22784269
H        1.04669575      -2.26950695       2.96632269
