23
Properties=species:S:1:pos:R:3 pbc="F F F"
C       -2.22964905       0.03152108      -2.16072137
C        0.77135095      -1.23047892      -0.16572137
C       -0.02064905      -0.78947892      -1.23472137
C        0.23435095      -1.30047892       1.11627863
C       -1.35764905      -0.42647892      -1.02172137
C       -1.09064905      -0.93747892       1.33427863
C       -1.88564905      -0.50847892       0.26927863
H        1.79735095      -1.51647892      -0.34072137
H        0.40535095      -0.72147892      -2.22572137
H        0.84535095      -1.64347892       1.94127863
H       -1.51364905      -0.99947892       2.32727863
H       -1.65264905       0.72152108      -2.77872137
H       -3.08564905       0.58152108      -1.76572137
H       -2.91664905      -0.23847892       0.45127863
H       -2.59108735      -0.79761892      -2.78673137
C        3.06435095       1.70152108       0.78427863
C        1.97535095       2.72852108       1.05627863
H        2.65735095       0.70452108       0.93627863
H        3.38335095       1.79952108      -0.24472137
H        3.93635095       1.85452108       1.41627863
H        2.39935095       3.72052108       0.89027863
H        1.61549095       2.66114108       2.09356863
H        1.14039495       2.58780108       0.35410863
