25
Properties=species:S:1:pos:R:3 pbc="F F F"
C       -2.28634214      -0.94236398      -0.74874388
C       -1.58234214      -1.94236398      -1.64974388
O       -2.08134214      -3.04136398      -1.88274388
N       -0.41834214      -1.57236398      -2.16774388
H        0.07165786      -2.23236398      -2.75674388
H       -0.02834214      -0.67436398      -1.94174388
H       -3.31534214      -0.86436398      -1.07574388
H       -1.79634214       0.03263602      -0.76574388
H       -2.38078214      -1.31648398       0.28136012
C        0.00665786       3.71263602       1.67525612
C        1.26065786      -0.24436398       0.52525612
C        1.36165786       0.80763602      -0.38474388
C        0.74565786      -0.02036398       1.80325612
C        0.94365786       2.08963602      -0.01074388
C        0.33265786       1.26663602       2.16825612
C        0.42965786       2.32663602       1.26525612
O        1.67465786      -1.49336398       0.16525612
H        2.07865786      -1.52236398      -0.70874388
H        1.79565786       0.64463602      -1.36274388
H        0.67265786      -0.83936398       2.50525612
H        1.01965786       2.90963602      -0.71574388
H       -0.06434214       1.43563602       3.16025612
H        0.68165786       4.43963602       1.22325612
H        0.12865786       3.77463602       2.75325612
H       -1.03619214       3.98722302       1.45832512
