23
Properties=species:S:1:pos:R:3 pbc="F F F"
C        0.60347830       0.26004488       1.10334950
C        0.80547830      -0.12095512       2.57234950
C       -0.58452170      -0.40495512       0.47934950
C       -1.88552170      -0.34995512       0.84334950
C       -1.72452170      -1.64395512      -0.90465050
N       -0.50152170      -1.21195512      -0.62665050
N       -2.57952170      -1.14195512      -0.02665050
H        0.50447830       1.34304488       1.00934950
H        1.47847830      -0.03895512       0.52534950
H        0.65847830      -1.19695512       2.64934950
H       -2.28552170       0.19104488       1.68034950
H       -1.98452170      -2.30995512      -1.72065050
H       -3.58052170      -1.31795512      -0.00565050
H        0.06173030       0.40814888       3.18626080
H        1.84393130       0.06494988       2.88388542
C        2.04047830       1.85504488      -2.05265050
C        3.28147830       2.32804488      -1.29465050
H        1.79747830       0.82804488      -1.78365050
H        1.19347830       2.49204488      -1.79965050
H        2.22147830       1.91704488      -3.12565050
H        3.07247830       2.29004488      -0.22465050
H        3.41647830       3.36904488      -1.57965050
H        4.19344430       1.75236588      -1.51124250
