25
Properties=species:S:1:pos:R:3 pbc="F F F"
C       -1.53258413      -4.64677880       0.99919946
C       -0.15058413      -0.56377880       0.74519946
C        0.05941587      -1.43977880      -0.32380054
C       -0.80658413      -1.00877880       1.89419946
C       -0.39258413      -2.75977880      -0.23880054
C       -1.25258413      -2.33277880       1.97219946
C       -1.04958413      -3.21877880       0.90919946
O        0.29441587       0.72322120       0.66919946
H        0.89841587       0.83122120      -0.06280054
H        0.55541587      -1.10377880      -1.22280054
H       -0.96758413      -0.32277880       2.71419946
H       -0.23958413      -3.42677880      -1.07680054
H       -1.75658413      -2.67477880       2.86719946
H       -1.96558413      -4.93777880       0.04819946
H       -2.32858413      -4.70977880       1.74319946
H       -0.74863413      -5.37385880       1.25763946
C        2.28041587       2.67422120      -1.16380054
C        1.05141587       3.49222120      -1.51680054
O        1.13341587       4.70722120      -1.67080054
N       -0.10158413       2.85322120      -1.62880054
H       -0.90758413       3.40422120      -1.90880054
H       -0.19058413       1.85122120      -1.59080054
H        2.99541587       2.77522120      -1.98180054
H        2.03641587       1.61822120      -1.06480054
H        2.73594587       3.05081120      -0.23608054
