20
Properties=species:S:1:pos:R:3 pbc="F F F"
C        1.37321845      -0.96693642      -0.69050580
C        1.55521845      -2.22193642      -1.51650580
O        2.49021845      -0.74193642       0.14949420
H        1.20621845      -0.10593642      -1.33950580
H        0.50421845      -1.10893642      -0.05350580
H        2.33021845      -2.04993642      -2.26450580
H        3.07521845      -0.08493642      -0.30950580
H        0.60022845      -2.45536142      -2.00996580
H        1.86460845      -3.02519442      -0.83162580
C       -1.45178155       1.25706358       0.43049420
C       -2.80378155       0.79306358      -0.10850580
C       -1.48078155       1.96506358       1.77149420
H       -0.81878155       0.38306358       0.53749420
H       -0.99478155       1.91406358      -0.30950580
H       -3.43778155       1.66906358      -0.25150580
H       -1.96878155       1.33606358       2.51549420
H       -3.26994155       0.08779358       0.59525420
H       -2.67337155       0.31273358      -1.08945580
H       -0.44865155       2.14631358       2.10594420
H       -2.03531155       2.91110358       1.68489420
