19
Properties=species:S:1:pos:R:3 pbc="F F F"
C       -1.84412501       0.59853559       0.75864970
C       -2.72912501       1.09153559       1.91364970
H       -1.53912501      -0.43546441       0.91364970
H       -2.40512501       0.66353559      -0.17135030
H       -0.97112501       1.24153559       0.66764970
H       -3.68412501       0.57053559       1.89164970
H       -2.94412501       2.14653559       1.75964970
H       -2.26798501       0.96090559       2.90374370
C        1.65187499      -0.34346441      -0.36935030
C        1.21687499      -1.76946441      -0.63635030
C        1.81987499       0.39953559      -1.67835030
H        0.91687499       0.15653559       0.25564970
H        2.60487499      -0.35246441       0.15664970
H        1.98087499      -2.23646441      -1.26235030
H        0.28587499      -1.75046441      -1.20635030
H        2.53487499      -0.14746441      -2.30035030
H        0.86187499       0.42853559      -2.20135030
H        1.06132499      -2.39166441       0.25733670
H        2.19026499       1.42376559      -1.52420030
