20
Properties=species:S:1:pos:R:3 pbc="F F F"
C       -1.79897877      -0.39689691      -2.27746668
C       -2.19397877      -1.16589691      -3.51046668
H       -0.71797877      -0.28689691      -2.25846668
H       -2.23597877       0.60410309      -2.30946668
H       -2.14597877      -0.90989691      -1.37846668
H       -1.72197877      -0.70189691      -4.36846668
H       -1.89719877      -2.22426491      -3.46827668
H       -3.28200877      -1.11278691      -3.66333668
C        1.04402123       0.09310309       0.15553332
C        0.93202123       1.51610309      -0.41046668
C        0.75302123       0.06210309       1.64353332
O        0.28102123       1.01710309       2.23253332
N        1.08202123      -1.04989691       2.26153332
H        0.33402123      -0.56789691      -0.33446668
H        2.04802123      -0.29689691      -0.01746668
H       -0.09397877       1.87410309      -0.29046668
H        0.92702123      -1.10789691       3.25553332
H        1.49802123      -1.81589691       1.75453332
H        1.23258123       1.49797909      -1.46845668
H        1.61962123       2.20081809       0.10758332
