19
Properties=species:S:1:pos:R:3 pbc="F F F"
C        0.13518920       0.12652929       1.65481767
C       -1.22081080      -0.59747071       1.47081767
C       -0.10881080       1.31352929       2.58581767
H        0.46418920       0.50752929       0.68881767
H        0.89018920      -0.54947071       2.05781767
H       -1.33981080      -0.91747071       0.43581767
H       -1.28981080      -1.45047071       2.14681767
H        0.51218920       2.17052929       2.31781767
H        0.13118920       0.98652929       3.59481767
H       -1.95973180       0.16537929       1.75725767
H       -1.18547780       1.53261929       2.53303767
C        0.42918920      -0.40547071      -2.06918233
C        0.77518920      -0.43347071      -3.53818233
H       -0.44181080      -1.02547071      -1.87018233
H        1.26218920      -0.80647071      -1.49218233
H        0.23118920       0.61652929      -1.74218233
H        0.91418920      -1.46247071      -3.85618233
H       -0.01876412       0.06914929      -4.11003233
H        1.71156820       0.12010929      -3.70172233
