18
Properties=species:S:1:pos:R:3 pbc="F F F"
C        0.54582999      -2.27687127      -0.85253308
C        0.30582999      -1.82487127      -2.20653308
N        1.66182999      -1.29787127      -0.44053308
H       -0.34517001      -2.15987127      -0.22753308
H        0.88582999      -3.31887127      -0.85553308
H        1.17782999      -2.05187127      -2.82753308
H        0.22782999      -0.73287127      -2.18353308
H        1.24382999      -0.40287127      -0.17453308
H        2.13082999      -1.62587127       0.39546692
H        2.36782999      -1.15687127      -1.15353308
H       -0.60693501      -2.11489127      -2.74759708
C       -1.88617001       1.79812873       1.53046692
C       -0.61417001       1.36012873       0.87446692
O       -0.24117001       0.17712873       1.01546692
O       -0.00517001       2.16112873       0.15546692
H       -1.84117001       2.86112873       1.77946692
H       -2.03417001       1.24712873       2.46046692
H       -2.74399801       1.62011873       0.86530692
