38
Properties=species:S:1:pos:R:3 pbc="F F F"
C        2.00038190       0.02027384      -2.70898010
C        2.71038190       1.20127384      -3.37098010
C        0.51738190       0.25027384      -2.53198010
C       -0.00661810       0.55327384      -1.28898010
C       -0.34461810       0.19327384      -3.61898010
C       -1.35661810       0.79427384      -1.14098010
C       -1.70461810       0.44027384      -3.48998010
C       -2.20461810       0.75627384      -2.24098010
O       -3.52861810       0.99927384      -2.05898010
H        2.15238190      -0.87972616      -3.30498010
H        2.45038190      -0.15472616      -1.73198010
H        2.47838190       2.10127384      -2.80098010
H        0.64238190       0.59627384      -0.42798010
H        0.03838190      -0.08172616      -4.59198010
H       -1.74861810       1.01527384      -0.16098010
H       -2.36861810       0.38627384      -4.33898010
H       -3.75561810       1.11827384      -1.13298010
H        2.37873190       1.30855384      -4.41429010
H        3.79632190       1.03173384      -3.32640010
C       -0.76561810       1.53727384       4.10001990
C        0.20538190      -1.40972616       1.97501990
C        0.50838190      -0.12572616       2.48101990
C       -0.59361810       0.26027384       3.33901990
C       -1.48661810      -0.75172616       3.29801990
C        2.26238190      -1.52472616       0.77901990
C        1.07438190      -2.11172616       1.14901990
C        2.59038190      -0.24972616       1.24701990
C        1.73338190       0.45227384       2.10801990
N       -1.01461810      -1.75872616       2.49401990
H        2.93538190      -2.04472616       0.11201990
H        0.80438190      -3.08972616       0.78201990
H        3.51438190       0.20527384       0.93901990
H        1.99738190       1.43027384       2.47401990
H       -1.51861810      -2.61772616       2.30601990
H       -2.42661810      -0.76872616       3.83901990
H       -1.75461810       1.54227384       4.55701990
H       -0.74961810       2.34527384       3.37401990
H       -0.00140810       1.73102384       4.86711990
