15
Properties=species:S:1:pos:R:3 pbc="F F F"
C        2.00992997       1.88254169      -1.73231253
N        2.10192997       0.98454169      -0.48431253
H        2.41292997       1.52554169       0.32268747
H        1.18592997       0.58654169      -0.25331253
H        2.78392997       0.23454169      -0.61231253
H        1.06992997       2.44454169      -1.70431253
H        2.01492997       1.27954169      -2.64931253
H        2.84294997       2.60051769      -1.75646253
C       -1.55907003      -1.75445831      -0.34131253
C       -1.09407003      -0.70645831       0.63468747
O       -0.51607003       0.29554169       0.16168747
O       -1.29407003      -0.88545831       1.86968747
H       -2.63107003      -1.89645831      -0.19331253
H       -1.08207003      -2.71145831      -0.12131253
H       -1.41066003      -1.48943831      -1.39854253
