16
Properties=species:S:1:pos:R:3 pbc="F F F"
C       -0.71899066      -0.47327179      -1.93064622
C       -0.17099066      -1.89627179      -1.96564622
H       -0.00999066       0.23572821      -2.35664622
H       -1.62299066      -0.43227179      -2.53964622
H       -0.97499066      -0.19027179      -0.91064622
H        0.04300934      -2.11127179      -2.98964622
H        0.72484934      -1.99166179      -1.33447322
H       -0.93753066      -2.60858179      -1.62648722
C        0.17500934       1.03172821       1.25635378
C        0.71900934       1.33772821       2.64335378
H        0.18900934       1.93672821       0.65735378
H        0.81600934       0.29172821       0.78635378
H       -0.84099066       0.63672821       1.32435378
H        1.65900934       1.87172821       2.54435378
H        0.00676934       1.95787821       3.20738778
H        0.89972934       0.40457821       3.19704878
