30
Properties=species:S:1:pos:R:3 pbc="F F F"
C       -3.18981329      -1.10083828       1.27505830
C       -4.23981329      -1.42183828       0.20905830
C       -3.46881329      -1.78783828       2.61305830
H       -2.20181329      -1.39283828       0.92805830
H       -3.18181329      -0.02383828       1.43905830
H       -5.21481329      -1.05083828       0.52505830
H       -4.29881329      -2.50083828       0.06805830
H       -2.81481329      -1.32583828       3.35905830
H       -4.50581329      -1.58183828       2.89705830
H       -3.94279729      -0.94043828      -0.73436170
H       -3.28653829      -2.87259828       2.60416730
C        3.04918671       2.69816172       0.31505830
C        0.73818671      -0.23883828      -0.06194170
C        1.45518671       0.84716172      -0.63194170
C        2.12518671       1.52516172       0.44605830
C        1.79418671       0.84516172       1.59205830
C       -0.01481329      -1.11183828      -0.82894170
C       -0.07181329      -0.89783828      -2.19394170
C        0.63018671       0.15916172      -2.79194170
C        1.39218671       1.03916172      -2.02394170
N        0.95518671      -0.20183828       1.28905830
H       -0.51881329      -1.95183828      -0.37694170
H       -0.65181329      -1.56783828      -2.81694170
H        0.55418671      -0.86083828       1.96205830
H        0.57018671       0.29816172      -3.86394170
H        2.12618671       1.10316172       2.58905830
H        1.91118671       1.86516172      -2.47994170
H        2.62618671       3.55516172       0.84205830
H        3.12518671       2.95816172      -0.73994170
H        4.05752071       2.48199172       0.69785230
