22
Properties=species:S:1:pos:R:3 pbc="F F F"
C        1.87265878      -0.71675770       0.02482153
C        2.31865878      -0.49175770       1.44282153
C        2.71865878       0.18824230      -0.88317847
H        0.81965878      -0.45975770      -0.04517847
H        2.01565878      -1.76475770      -0.22517847
H        1.47365878      -0.29075770       2.10382153
H        2.88065878      -1.34675770       1.82182153
H        2.06665878       0.62824230      -1.63317847
H        3.53665878      -0.34375770      -1.37617847
H        2.97590878       0.38904230       1.39630153
H        3.12491878       0.96694230      -0.22094847
C       -1.83934122       0.07524230      -0.38117847
C       -1.87134122       1.06524230       0.79582153
C       -3.20934122      -0.16975770      -1.02917847
H       -1.15434122       0.46724230      -1.13017847
H       -1.44434122      -0.86775770      -0.00617847
H       -0.85034122       1.09124230       1.18682153
H       -3.60734122       0.76724230      -1.41517847
H       -3.10334122      -0.87875770      -1.84917847
H       -3.89634122      -0.57875770      -0.29017847
H       -2.15589122       2.07104230       0.45323153
H       -2.56212122       0.74044230       1.58787153
