16
Properties=species:S:1:pos:R:3 pbc="F F F"
C       -0.84520961       0.41727461       1.79065671
C       -0.08020961      -0.83372539       2.23665671
H       -1.50320961       0.75627461       2.59165671
H       -0.13920961       1.21427461       1.55565671
H       -1.44420961       0.20127461       0.90765671
H        0.60779039      -1.10372539       1.43765671
H       -0.79352961      -1.65948539       2.37559571
H        0.52664039      -0.63599539       3.13255471
C        0.51779039       0.87127461      -1.64134329
C        0.40779039      -0.45972539      -2.37934329
H        1.07979039       0.74027461      -0.71734329
H        1.00979039       1.60127461      -2.27134329
H       -0.47820961       1.25027461      -1.41034329
H       -0.10420961      -0.27572539      -3.32334329
H       -0.17250961      -1.16658539      -1.76811929
H        1.40915039      -0.86372539      -2.58924829
