16
Properties=species:S:1:pos:R:3 pbc="F F F"
C       -1.36468964      -1.48059257       1.14666726
C       -2.07368964      -0.15959257       0.84066726
H       -1.42068964      -1.71459257       2.21066726
H       -1.84468964      -2.28459257       0.58666726
H       -0.31868964      -1.41559257       0.85466726
H       -1.99968964       0.03440743      -0.23133274
H       -1.59833464       0.66839743       1.38699726
H       -3.13952264      -0.25550257       1.09522726
C        0.99831036       0.84140743      -0.74633274
C        2.44331036       0.80240743      -1.23133274
H        0.96031036       0.56340743       0.30566726
H        0.57731036       1.84040743      -0.84833274
H        0.36731036       0.16640743      -1.32933274
H        2.43531036       0.89240743      -2.31333274
H        2.88884036      -0.17227257      -0.98333274
H        3.05391036       1.63386743      -0.84944274
