20
Properties=species:S:1:pos:R:3 pbc="F F F"
C        0.45971725       0.30093826      -0.70010894
C        0.66171725       1.69293826      -1.27510894
C       -2.02128275       0.66393826      -1.90510894
S       -1.28628275      -0.05106174      -0.42410894
H        0.85271725      -0.44306174      -1.39210894
H        0.98971725       0.22393826       0.24489106
H        0.25871725       2.44393826      -0.59610894
H        0.13871725       1.76293826      -2.21910894
H       -1.43828275       0.38593826      -2.78610894
H       -3.01728275       0.25893826      -2.04210894
H       -2.08728275       1.74893826      -1.81410894
H        1.69787725       1.94152826      -1.54819894
C        1.12571725      -1.29406174       2.71889106
C        2.50971725      -1.28506174       2.09589106
H        0.98971725      -2.16906174       3.35289106
H        1.00971725      -0.41006174       3.34089106
H        0.36571725      -1.28206174       1.93889106
H        3.24071725      -1.30306174       2.90489106
H        2.62571725      -0.34706174       1.56089106
H        2.68809725      -2.12540074       1.40886106
