27
Properties=species:S:1:pos:R:3 pbc="F F F"
C       -1.97717444       2.16988900      -1.58816074
C       -2.90317444       1.60588900      -2.67816074
C       -0.55417444       2.47088900      -2.07716074
H       -2.41917444       3.12188900      -1.28416074
H       -2.00717444       1.55388900      -0.70916074
H       -3.01817444       2.35388900      -3.46416074
H       -3.88417444       1.42888900      -2.23516074
H       -0.05817444       1.52788900      -2.33616074
H       -0.62217444       3.07188900      -2.99116074
H       -2.54887444       0.66947900      -3.13379174
H        0.04493056       3.00861900      -1.32755074
C        1.85782556      -3.49011100       0.22883926
C       -0.40717444      -0.43911100       0.25483926
C        0.13282556      -1.67911100      -0.04216074
C        0.22982556       0.39088900       1.16583926
C        1.28782556      -2.13311100       0.58683926
C        1.39082556      -0.03711100       1.80683926
C        1.92282556      -1.29111100       1.50583926
O       -0.30617444       1.61488900       1.40083926
H       -1.35617444      -0.20911100      -0.18216074
H       -0.37117444      -2.30911100      -0.74616074
H       -1.21917444       1.67588900       1.11983926
H        1.86082556       0.60288900       2.53783926
H        1.05482556      -4.22511100       0.27383926
H        2.61182556      -3.77311100       0.96383926
H        2.80682556      -1.63011100       2.02483926
H        2.30441356      -3.51998100      -0.77598074
