29
Properties=species:S:1:pos:R:3 pbc="F F F"
C        1.54649468      -1.97382185       1.20306475
C        1.65849468      -2.90182185       2.42106475
C        1.81849468      -0.52982185       1.61406475
C        2.54549468      -2.41182185       0.13706475
H        0.54949468      -2.05282185       0.78406475
H        2.68749468      -2.86082185       2.78406475
H        1.47649468      -3.92582185       2.08406475
H        2.77449468      -0.44782185       2.13006475
H        1.83849468       0.10117815       0.72506475
H        1.01749468      -0.16482185       2.25606475
H        2.34349468      -3.43982185      -0.16493525
H        2.45349468      -1.76582185      -0.73593525
H        3.55949468      -2.34182185       0.52706475
H        0.99158468      -2.69050185       3.26992475
C       -1.84850532       3.22817815       0.40606475
C       -1.22650532      -0.40282185      -0.50993525
C       -0.73050532      -0.28682185      -1.80993525
C       -1.57150532       0.74117815       0.21006475
C       -1.43350532       2.00517815      -0.35993525
C       -0.58550532       0.97717815      -2.38693525
C       -0.93650532       2.11817815      -1.66093525
H       -1.36350532      -1.37882185      -0.06693525
H       -0.46150532      -1.17582185      -2.35893525
H       -1.94450532       0.63717815       1.21706475
H       -0.20850532       1.08317815      -3.39293525
H       -1.11850532       4.01717815       0.21306475
H       -1.82150532       3.00817815       1.47306475
H       -0.82450532       3.09117815      -2.11693525
H       -2.85118532       3.59860815       0.14640475
