18
Properties=species:S:1:pos:R:3 pbc="F F F"
C        0.55861191       1.71178769      -2.88531364
O        0.04161191       1.67178769      -1.57031364
H       -0.46638809       2.48778769      -1.44631364
H        1.47861191       1.12578769      -2.92131364
H        0.79761191       2.74078769      -3.15831364
H       -0.16548809       1.29863769      -3.60293564
C       -0.52438809      -1.14621231       0.04968636
C       -1.97938809      -1.39421231       0.48068636
C        0.36061191      -0.60821231       1.16068636
O        0.58161191      -1.26821231       2.17168636
N        0.90961191       0.57678769       0.96368636
H       -0.09238809      -2.09321231      -0.27131364
H       -0.50438809      -0.48821231      -0.80331364
H       -1.99738809      -2.15421231       1.26568636
H        1.52761191       0.95378769       1.66768636
H        0.74761191       1.06178769       0.08568636
H       -2.53327809      -1.75341231      -0.39919364
H       -2.44275809      -0.47900231       0.87776036
