22
Properties=species:S:1:pos:R:3 pbc="F F F"
C       -1.12763990      -0.71004747      -1.47624157
C       -2.03263990      -1.24804747      -2.52624157
C        0.24636010      -0.64904747      -2.14624157
H       -1.12463990      -1.34804747      -0.59124157
H       -1.43863990       0.29595253      -1.19424157
H       -1.91063990      -2.33004747      -2.60924157
H       -3.07563990      -0.99304747      -2.33424157
H        0.79936010       0.19795253      -1.73324157
H       -1.65413990      -0.75628947      -3.43449157
H        0.01570010      -0.47284247      -3.20725157
H        0.82474010      -1.56463847      -1.95345157
C        0.84636010       0.58695253       1.47375843
C        1.93336010       0.25995253       2.52375843
C        0.11936010       1.74095253       2.14375843
H        0.19336010      -0.27804747       1.33875843
H        1.27636010       0.89295253       0.52175843
H        2.40336010      -0.70004747       2.31875843
H        2.67436010       1.05895253       2.58375843
H        0.63536010       2.68295253       1.94775843
H        1.30656010       0.24855653       3.42763843
H        0.17289010       1.49710453       3.21505843
H       -0.92152990       1.79837553       1.79267843
