24
Properties=species:S:1:pos:R:3 pbc="F F F"
C        2.09811498      -1.12141849       1.99913582
C        3.20611498      -1.49641849       2.96513582
H        2.39011498      -0.25741849       1.40113582
H        1.86711498      -1.95641849       1.33913582
H        1.21111498      -0.87541849       2.58213582
H        2.87211498      -2.38641849       3.50013582
H        3.35197498      -0.69910849       3.70878882
H        4.13480498      -1.76749849       2.44162882
C       -0.85088502      -1.55641849      -2.90286418
C       -0.74588502      -1.01941849      -0.46486418
C       -0.73788502      -0.56041849      -1.77286418
C       -0.71188502      -0.10341849       0.58713582
C       -0.69888502       1.26358151       0.33313582
C       -0.70688502       0.82358151      -2.01086418
C       -0.71688502       1.74358151      -0.97086418
O       -0.71388502       2.16358151       1.37613582
H       -0.76288502      -2.08141849      -0.25186418
H       -0.66088502      -0.47041849       1.59413582
H       -0.51188502      -2.53641849      -2.56186418
H       -0.20388502      -1.24441849      -3.72386418
H       -0.69488502       1.19658151      -3.02686418
H       -0.67188502       1.72058151       2.24113582
H       -0.70988502       2.80658151      -1.16486418
H       -1.88927502      -1.63891849      -3.25634218
