18
Properties=species:S:1:pos:R:3 pbc="F F F"
C       -2.12417271      -0.90353385      -2.56062504
C       -1.92817271      -0.72653385      -1.06462504
O       -1.19817271       0.15546615      -0.62462504
N       -2.56617271      -1.57253385      -0.27262504
H       -3.17117271      -1.13853385      -2.75862504
H       -1.52217271      -1.75853385      -2.87162504
H       -2.43517271      -1.48453385       0.72437496
H       -3.14017271      -2.30653385      -0.65962504
H       -1.82499271      -0.01601385      -3.13751504
C        1.91782729       1.83746615       0.12037496
C        1.91482729       0.73046615       1.16437496
O        0.86082729       0.28646615       1.61637496
N        3.09482729       0.27946615       1.56237496
H        1.04782729       1.67346615      -0.51262504
H        2.78082729       1.75446615      -0.53562504
H        3.12982729      -0.46353385       2.24637496
H        3.94182729       0.67646615       1.17237496
H        1.81939729       2.84188815       0.55792496
