24
Properties=species:S:1:pos:R:3 pbc="F F F"
C       -0.92872765       1.56862033      -2.23996833
C       -0.65272765      -0.18137967      -0.41296833
C       -0.60172765       1.15662033      -0.82496833
C       -0.36572765      -0.53937967       0.91003167
C       -0.23072765       2.12662033       0.10903167
C       -0.00372765       0.44362033       1.81503167
C        0.06127235       1.77462033       1.42603167
O        0.28727235       0.10062033       3.10103167
H       -0.94272765      -0.94937967      -1.11696833
H       -0.41772765      -1.57037967       1.23103167
H       -0.55372765       2.58162033      -2.36796833
H       -0.28172765       0.95162033      -2.88596833
H       -0.15372765       3.16062033      -0.19096833
H        0.35227235       2.53662033       2.13703167
H        0.49527235       0.87162033       3.64203167
H       -2.00689465       1.60389033      -2.45516833
C        0.89227235      -2.58237967      -2.56796833
C        1.21127235      -3.21637967      -1.21996833
H       -0.06272765      -2.94237967      -2.95296833
H        0.82927235      -1.49737967      -2.47096833
H        1.68727235      -2.81137967      -3.27796833
H        0.35127235      -3.10737967      -0.56196833
H        1.44219935      -4.28180967      -1.36672833
H        2.07253335      -2.70351967      -0.76697833
