20
Properties=species:S:1:pos:R:3 pbc="F F F"
C        1.99834783      -0.72114066      -1.38439693
C       -0.29565217      -1.65914066      -1.58939693
N       -0.76465217      -0.96114066      -0.56739693
N        0.97134783      -1.57014066      -1.99139693
N       -1.11565217      -2.47414066      -2.22339693
H       -0.16365217      -0.38314066       0.01760307
H       -1.74365217      -1.10814066      -0.33339693
H        1.25834783      -2.16914066      -2.75239693
H       -0.80665217      -3.05414066      -2.98639693
H       -2.07165217      -2.52214066      -1.86939693
H        2.98934783      -1.12514066      -1.60039693
H        1.87734783      -0.68514066      -0.30039693
H        1.91603783       0.29355934      -1.80105793
C       -1.18365217       2.54985934       1.15560307
C       -0.12665217       1.82185934       1.98360307
O        0.34534783       0.74785934       1.53560307
O        0.22034783       2.30185934       3.08660307
H       -1.93965217       1.83485934       0.83260307
H       -0.69865217       2.92485934       0.25060307
H       -1.64080217       3.41368934       1.66039207
