19
Properties=species:S:1:pos:R:3 pbc="F F F"
C        1.06509613      -1.30278463       0.50798688
C        2.46909613      -0.70878463       0.48098688
C        0.74409613      -1.96478463      -0.83201312
H        0.99909613      -2.04078463       1.30798688
H        0.34009613      -0.51478463       0.69998688
H        2.50109613      -0.03678463      -0.36301312
H        3.19109613      -1.51378463       0.33198688
H        0.89909613      -1.23278463      -1.63001312
H        1.42909613      -2.80078463      -0.99101312
H        2.73992313      -0.11756463       1.36817688
H       -0.29310387      -2.32762463      -0.88261312
C       -1.59290387       1.37821537      -0.01001312
C       -2.61790387       2.50821537      -0.10901312
H       -0.57790387       1.77821537      -0.02601312
H       -1.73690387       0.83321537       0.92098688
H       -1.71390387       0.69521537      -0.85201312
H       -2.48090387       3.15821537       0.75098688
H       -2.46353387       3.09367537      -1.02739312
H       -3.63732387       2.09785537      -0.06005312
