27
Properties=species:S:1:pos:R:3 pbc="F F F"
C        2.37103440      -1.13675334       0.58349025
C        3.73903440      -0.50075334       0.45049025
C        2.33703440      -2.62075334       0.31549025
H        2.01403440      -0.98375334       1.60349025
H        1.67603440      -0.63475334      -0.09150975
H        4.03203440      -0.49475334      -0.59750975
H        3.04403440      -3.14775334       0.95549025
H        1.34203440      -2.97875334       0.58749025
H        4.51405440      -1.05120334       1.00397025
H        3.67712440       0.52503666       0.84281025
H        2.51295440      -2.90149334      -0.73342975
C       -1.05896560       2.82224666      -2.07750975
C       -1.19496560      -0.48075334       0.69249025
C       -0.50596560       0.68324666       1.01549025
C       -1.85696560      -0.56175334      -0.52350975
C       -0.46596560       1.75124666       0.11749025
C       -1.81296560       0.49924666      -1.42350975
C       -1.12096560       1.67624666      -1.10950975
O       -1.22296560      -1.51875334       1.58349025
H       -0.00096560       0.76524666       1.96749025
H       -0.75596560      -1.31075334       2.40149025
H       -2.40296560      -1.46075334      -0.77250975
H        0.05903440       2.65524666       0.38249025
H       -2.34196560       0.41424666      -2.36350975
H       -1.41196560       2.49924666      -3.05850975
H       -0.02196560       3.13224666      -2.18750975
H       -1.65244560       3.68052666      -1.72945975
