29
Properties=species:S:1:pos:R:3 pbc="F F F"
C       -1.34419332       2.70273580      -0.69012248
C       -2.78119332       2.88073580      -0.26912248
C       -0.61319332       2.29573580       0.55887752
H       -0.95219332       3.66073580      -1.03612248
H       -1.25019332       1.95573580      -1.47812248
H       -3.24819332       3.67873580      -0.84512248
H       -3.32019332       1.94173580      -0.39512248
H        0.42780668       2.55773580       0.56087752
H       -0.71619332       1.21973580       0.67787752
H       -2.71821332       3.11841580       0.80304752
H       -1.16209032       2.76291580       1.38981752
C        0.63880668      -0.31526420      -1.84412248
C        1.70580668      -1.04326420      -2.66612248
C        0.54480668      -0.79626420      -0.42112248
C        1.54380668      -0.47526420       0.49587752
C       -0.54019332      -1.55726420      -0.00112248
C        1.45980668      -0.91326420       1.81287752
C       -0.62719332      -1.99626420       1.31587752
C        0.37380668      -1.67426420       2.22287752
H        0.89180668       0.74573580      -1.81312248
H       -0.33119332      -0.40426420      -2.33612248
H        2.60680668      -1.12926420      -2.05812248
H        2.38980668       0.12273580       0.18687752
H       -1.32719332      -1.81126420      -0.69612248
H        2.24280668      -0.66926420       2.51387752
H       -1.47819332      -2.58026420       1.63787752
H        0.30880668      -2.01526420       3.24787752
H        1.95550168      -0.46518420      -3.56805248
H        1.38045768      -2.06178420      -2.92453248
