22
Properties=species:S:1:pos:R:3 pbc="F F F"
C       -0.70347805       1.13620403      -2.08505611
C       -1.13847805       1.77220403      -3.41005611
H       -0.88447805       0.06220403      -2.10805611
H        0.35952195       1.31620403      -1.92705611
H       -1.24847805       1.57820403      -1.25105611
H       -0.98647805       2.84720403      -3.32805611
H       -2.19919805       1.57129453      -3.62104611
H       -0.51162805       1.41102903      -4.23867611
C        0.20252195      -0.70579597       1.17394389
C       -0.44047805      -0.75779597       2.58594389
C        1.18452195       0.45220403       1.09294389
C        0.91652195      -2.00179597       0.80394389
H       -0.57447805      -0.52479597       0.43394389
H       -0.96947805       0.17920403       2.76694389
H        0.34852195      -0.85479597       3.33494389
H        2.00552195       0.29520403       1.78394389
H        1.57752195       0.52920403       0.07794389
H        0.70752195       1.39020403       1.35294389
H        0.19052195      -2.80179597       0.66494389
H        1.44652195      -1.86779597      -0.14005611
H        1.62652195      -2.28179597       1.58194389
H       -1.13975805      -1.60050097       2.69012389
