15
Properties=species:S:1:pos:R:3 pbc="F F F"
C       -1.18012078       1.93879993      -0.22050414
C       -1.27912078       0.43579993       0.01749586
O       -1.36112078      -0.33220007      -0.96350414
O       -1.23912078       0.01379993       1.19049586
H       -0.13312078       2.18979993      -0.07450414
H       -1.78012078       2.48879993       0.50549586
H       -1.47969078       2.22615393      -1.23917414
C        2.24987922      -0.30420007      -0.18250414
C        2.70887922      -1.71520007       0.16149586
H        3.05987922       0.38779993       0.01449586
H        1.98587922      -0.25320007      -1.23950414
H        1.37687922      -0.02620007       0.40049586
H        1.90987922      -2.41420007      -0.08150414
H        2.95914222      -1.80913807       1.22852156
H        3.58893922      -1.96860507      -0.44783214
