19
Properties=species:S:1:pos:R:3 pbc="F F F"
C        1.41002786      -1.41946736      -1.54322425
C        0.61802786      -0.64046736      -2.61322425
H        2.28802786      -1.88446736      -1.99222425
H        1.73302786      -0.74146736      -0.75222425
H        0.77602786      -2.19446736      -1.10922425
H       -0.24797214      -0.16446736      -2.16022425
H        0.27793786      -1.29404736      -3.43002425
H        1.25934786       0.12678264      -3.07152425
C       -0.75297214       0.21853264       1.11477575
C       -0.47597214       0.23353264       2.63377575
C       -0.84297214       1.62453264       0.48777575
H        0.04502786      -0.34446736       0.63177575
H       -1.69697214      -0.30446736       0.95577575
H       -1.32697214       0.67553264       3.14977575
H       -1.60597214       1.60853264      -0.29122425
H       -1.12897214       2.34553264       1.25377575
H        0.42948786       0.82355264       2.83876575
H       -0.38467214      -0.80407736       2.98737575
H        0.10527786       1.95344264       0.03761575
