24
Properties=species:S:1:pos:R:3 pbc="F F F"
C        3.21733189       0.17349941       0.90902302
C        3.51833189       0.28349941      -0.59297698
H        2.18833189      -0.15350059       1.05402302
H        3.89333189      -0.54450059       1.36802302
H        3.35033189       1.14249941       1.38302302
H        4.55033189       0.60949941      -0.73797698
H        2.83637189       1.00889941      -1.06064698
H        3.35321189      -0.70500059      -1.04632698
C       -2.46466811       2.27949941      -0.97797698
C       -0.23866811      -1.18050059       0.37002302
C       -0.66766811      -0.23650059       1.31002302
C       -0.47466811      -0.98050059      -0.99597698
C       -1.36466811       0.91049941       0.88302302
C       -1.15766811       0.17149941      -1.40297698
C       -1.61366811       1.11849941      -0.48097698
O        0.37633189      -2.32250059       0.79502302
H       -0.43266811      -0.38650059       2.35602302
H        0.45833189      -2.36650059       1.76002302
H       -0.13866811      -1.70250059      -1.72997698
H       -1.71266811       1.62949941       1.61102302
H       -1.34766811       0.34449941      -2.45297698
H       -3.49766811       2.11049941      -0.66497698
H       -2.42766811       2.29849941      -2.06597698
H       -2.19929811       3.31759941      -0.72892698
