22
Properties=species:S:1:pos:R:3 pbc="F F F"
C        3.37450012       0.02178443       0.48584690
C        1.26350012       0.38078443       1.73584690
N        2.19850012       0.79278443       0.89084690
N        1.32450012      -0.81321557       2.29484690
N        0.25150012       1.17778443       2.01484690
H        2.05650012       1.70478443       0.46784690
H        2.11450012      -1.40921557       2.11684690
H        0.62450012      -1.10321557       2.95884690
H        0.18150012       2.05778443       1.51784690
H       -0.45449988       0.90678443       2.68184690
H        3.52550012      -0.85421557       1.11784690
H        4.26750012       0.64078443       0.59184690
H        3.28144012      -0.31192557      -0.55817310
C       -0.83049988      -0.44721557      -0.86115310
C       -3.40849988      -0.88321557      -1.76015310
S       -1.87949988      -0.06121557      -2.25615310
H       -0.67449988      -1.52421557      -0.80615310
H        0.12750012       0.05878443      -0.98615310
H       -1.30749988      -0.10221557       0.05684690
H       -3.87849988      -0.28121557      -0.98115310
H       -3.16949988      -1.85621557      -1.33415310
H       -4.12009088      -1.00577557      -2.58998210
