22
Properties=species:S:1:pos:R:3 pbc="F F F"
C       -3.21983590       0.06552337       0.14471856
O       -2.59183590      -0.00747663      -1.11628144
H       -3.05183590       0.53552337      -1.77728144
H       -2.73183590      -0.63347663       0.82271856
H       -4.26683590      -0.22347663       0.03071856
H       -3.15858590       1.07939337       0.56698556
C        0.40016410      -1.19147663      -0.46528144
C        0.35116410      -1.54947663      -1.94128144
C        1.39716410       0.64052337       0.86571856
N        1.37116410      -0.12047663      -0.21628144
N        0.51216410       0.46352337       1.82771856
N        2.29916410       1.59352337       0.97871856
H       -0.59183590      -0.89247663      -0.14128144
H        0.69016410      -2.08147663       0.09771856
H       -0.43983590      -2.28547663      -2.08728144
H        1.30516410      -1.98947663      -2.23828144
H        2.12216410      -0.00047663      -0.88328144
H       -0.13083590      -0.30747663       1.77871856
H        0.55616410       1.01052337       2.67271856
H        2.98616410       1.73452337       0.25471856
H        2.34016410       2.16152337       1.81071856
H        0.15586410      -0.65197663      -2.54655464
