18
Properties=species:S:1:pos:R:3 pbc="F F F"
C        1.76142892      -2.47938031       0.26817570
C        1.18242892      -1.10038031       0.58717570
O        0.17742892      -0.99838031       1.32917570
O        1.78042892      -0.11138031       0.10617570
H        2.61742892      -2.65638031       0.92017570
H        2.13342892      -2.48638031      -0.75382430
H        1.04177892      -3.30204731       0.39193370
C       -1.33157108       1.55161969      -0.28582430
C       -2.42557108       0.53461969      -0.62282430
C       -1.15457108       2.62161969      -1.36082430
H       -1.59057108       2.03861969       0.65617570
H       -0.38657108       1.04261969      -0.15382430
H       -3.34457108       1.08961969      -0.77982430
H       -0.79257108       2.15761969      -2.27882430
H       -2.11457108       3.08561969      -1.56682430
H       -2.58281108      -0.16086331       0.21477870
H       -2.16843108      -0.03527431      -1.52786576
H       -0.43938108       3.39893969      -1.05379630
