20
Properties=species:S:1:pos:R:3 pbc="F F F"
C        0.88461613       1.60714028      -3.16606222
C        0.97961613       0.90714028      -1.80406222
O        0.76861613      -0.32685972      -1.67806222
O        1.29061613       1.62014028      -0.82706222
H        1.88961613       1.92514028      -3.45306222
H        0.28861613       2.51614028      -3.07706222
H        0.49551613       0.98443028      -3.98511222
C       -1.54438387      -2.35585972       0.58793778
C       -0.59738387      -0.36885972       1.70493778
N       -0.75138387      -1.12885972       0.63393778
N       -1.12238387      -0.71385972       2.87293778
N        0.09561613       0.74314028       1.59793778
H       -0.24138387      -0.85085972      -0.20806222
H       -1.37038387      -2.96685972       1.47193778
H       -1.25338387      -2.94085972      -0.28706222
H       -1.56638387      -1.61385972       3.01593778
H       -1.06538387      -0.03785972       3.63093778
H        0.52061613       0.99414028       0.70293778
H        0.24161613       1.33614028       2.41193778
H       -2.60732387      -2.08558272       0.50365778
