13
Properties=species:S:1:pos:R:3 pbc="F F F"
C        1.59188132       1.19612334      -1.45312974
C        0.21688132       0.59312334      -1.21112974
O        0.12888132      -0.49687666      -0.61212974
O       -0.78211868       1.21912334      -1.62112974
H        1.96388132       1.64212334      -0.52812974
H        1.51388132       2.00112334      -2.18712974
H        2.30761132       0.45294334      -1.83446974
C       -1.19811868      -1.34287666       2.50587026
O        0.11288132      -0.99187666       2.07487026
H        0.09788132      -0.85287666       1.10487026
H       -1.87111868      -0.51187666       2.28987026
H       -1.53100868      -2.24182666       1.96636026
H       -1.18081868      -1.52883666       3.58990026
