16
Properties=species:S:1:pos:R:3 pbc="F F F"
C        0.97095580       0.54230118       1.03466330
C        1.95895580       1.15330118       2.02066330
H        1.50095580       0.02630118       0.23566330
H        0.34695580      -0.18869882       1.54766330
H        0.33295580       1.31930118       0.61166330
H        2.61695580       0.36230118       2.37766330
H        2.56166580       1.95145218       1.56274330
H        1.44121580       1.56662318       2.89879330
C       -1.36004420      -1.38569882      -1.00533670
C       -1.57404420      -0.30369882      -2.05333670
H       -1.90104420      -2.29469882      -1.27233670
H       -0.29504420      -1.61469882      -0.93433670
H       -1.69704420      -1.03869882      -0.02733670
H       -1.07904420       0.61830118      -1.74433670
H       -2.64648420      -0.12399982      -2.21937670
H       -1.13227420      -0.65741842      -2.99658670
