16
Properties=species:S:1:pos:R:3 pbc="F F F"
C       -0.01641508       1.78455127       0.75948226
C        1.36058492       2.44455127       1.09748226
H       -0.11741508       1.67155127      -0.32151774
H       -0.08241508       0.79955127       1.22448226
H       -0.83241508       2.39855127       1.14248226
H        1.36858492       2.74555127       2.14548226
H        1.52560072       3.31913127       0.45105126
H        2.15900392       1.71004127       0.91577826
C       -1.03841508      -1.45544873      -0.97851774
C       -0.30341508      -2.77144873      -0.87351774
H       -0.33541508      -0.63344873      -0.85951774
H       -1.50941508      -1.36044873      -1.95151774
H       -1.80141508      -1.40044873      -0.20051774
H       -1.04141508      -3.57244873      -0.86851774
H        0.31604132      -2.81854873       0.03425726
H        0.32279572      -2.88530873      -1.77067774
