23
Properties=species:S:1:pos:R:3 pbc="F F F"
C       -0.65376522       0.36108112      -0.67583325
C       -2.13576522       0.34208112      -1.02983325
C       -0.68376522       3.04508112       0.04516675
S        0.16723478       1.90708112      -1.09083325
H       -0.58676522       0.26808112       0.40616675
H       -0.11276522      -0.46891888      -1.09783325
H       -2.24976522       0.39508112      -2.11283325
H       -2.61576522       1.21808112      -0.59683325
H       -0.65776522       2.64808112       1.06016675
H       -0.17776522       4.01108112       0.02916675
H       -1.71776522       3.19108112      -0.26583325
H       -2.65507522      -0.54548888      -0.63927325
C        0.54123478      -2.47891888       1.18916675
C        0.94223478      -2.98991888       2.57616675
C        1.69223478      -2.48391888       0.18516675
H       -0.28476522      -3.06591888       0.79816675
H        0.21623478      -1.44891888       1.27216675
H        1.79423478      -2.40391888       2.92316675
H        2.05523478      -3.49791888       0.01916675
H        1.33723478      -2.09891888      -0.76783325
H        2.50923478      -1.85691888       0.54516675
H        0.11817478      -2.85670888       3.29252875
H        1.25485478      -4.04401888       2.54223375
