30
Properties=species:S:1:pos:R:3 pbc="F F F"
C        2.03438478       2.09935806      -1.26987757
C        2.92238478       2.73135806      -2.29787757
C        1.29638478       2.98135806      -0.31187757
H        1.30438478       1.47835806      -1.78787757
H        2.71138478       1.42835806      -0.74487757
H        3.24638478       1.90335806      -2.93187757
H        1.90438478       3.84335806      -0.13587757
H        0.35938478       3.30535806      -0.76687757
H        3.81822578       3.19089806      -1.85482757
H        2.40770978       3.43603306      -2.96760757
H        1.08884778       2.51839006       0.66413243
C       -3.38061522       0.27735806       0.97712243
C       -0.07361522      -0.97364194      -0.28187757
C       -1.01561522      -0.82564194       0.76512243
C       -2.15361522      -0.12064194       0.23812243
C       -1.84561522       0.14435806      -1.06387757
C        1.14238478      -1.61564194      -0.11087757
C        1.42738478      -2.13064194       1.14112243
C       -0.70361522      -1.35664194       2.02512243
C        0.51238478      -2.00564194       2.20012243
N       -0.62061522      -0.37664194      -1.38987757
H       -0.21361522      -0.34064194      -2.31887757
H        1.83938478      -1.72064194      -0.93287757
H       -2.49561522       0.67535806      -1.75187757
H        2.36738478      -2.64364194       1.30712243
H       -1.40061522      -1.25764194       2.83912243
H       -3.77961522       1.18135806       0.51412243
H       -3.03261522       0.57235806       1.96812243
H        0.76038478      -2.41864194       3.17112243
H       -4.19951522      -0.44879654       1.08712243
