28
Properties=species:S:1:pos:R:3 pbc="F F F"
C       -1.75991146      -1.90731728      -1.70990444
C        0.38908854      -1.92531728      -0.33790444
C       -0.86091146      -1.46831728      -0.61690444
C       -0.02691146      -0.35331728       1.20509556
C       -1.15191146      -0.45731728       0.35109556
C        0.02208854       0.54668272       2.25909556
C       -2.25391146       0.37868272       0.57809556
C       -1.08091146       1.35168272       2.47509556
C       -2.21291146       1.27368272       1.64409556
N        0.88908854      -1.27031728       0.76109556
H        0.90308854      -2.70631728      -0.88690444
H        1.81708854      -1.44531728       1.14509556
H       -1.16191146      -2.23931728      -2.55690444
H       -2.34991146      -1.04931728      -2.03690444
H        0.89508854       0.59668272       2.88709556
H       -3.12291146       0.31468272      -0.05890444
H       -1.07291146       2.05168272       3.29909556
H       -3.06391146       1.91368272       1.82709556
H       -2.44028046      -2.71507728      -1.40229044
C        2.26208854       0.57668272      -1.93990444
C        3.47408854       1.50868272      -1.99090444
O        1.20008854       1.42468272      -1.53390444
H        2.05808854       0.16268272      -2.92690444
H        2.43208854      -0.22731728      -1.22290444
H        4.25508854       1.01168272      -2.56690444
H        0.51808854       0.87268272      -1.12790444
H        3.81423854       1.69807872      -0.96210744
H        3.24698854       2.46610972      -2.48259544
