19
Properties=species:S:1:pos:R:3 pbc="F F F"
C       -1.24430591      -0.31196742      -1.78541653
C       -2.13630591       0.66203258      -2.56841653
H       -1.48630591      -0.24596742      -0.72641653
H       -1.42530591      -1.33196742      -2.12241653
H       -0.19530591      -0.06296742      -1.94141653
H       -3.17130591       0.35603258      -2.41141653
H       -2.01475591       1.70096258      -2.22806353
H       -1.90628591       0.58171258      -3.64109553
C        0.60669409      -0.39196742       1.29858347
C        1.37069409       0.69603258       0.60258347
C        1.44369409      -0.68696742       2.53758347
H        0.47469409      -1.26896742       0.66258347
H       -0.36730591      -0.00696742       1.60758347
H        2.16769409       0.25803258      -0.00041653
H        0.71769409       1.30003258      -0.02841653
H        0.79069409      -0.98596742       3.35558347
H        1.80905409       1.30124258       1.40977347
H        1.94691409       0.26764258       2.75088347
H        2.17759409      -1.47157742       2.30140347
