20
Properties=species:S:1:pos:R:3 pbc="F F F"
C        0.67575778      -1.44361498      -0.19385529
C        0.74975778      -2.78361498      -0.94385529
C       -0.49224222      -0.60361498      -0.70385529
O       -1.62024222      -0.70661498      -0.19585529
N       -0.24824222       0.21838502      -1.69585529
H        0.54275778      -1.61861498       0.87414471
H        1.59975778      -0.88161498      -0.33485529
H        0.84275778      -2.56761498      -2.01085529
H       -1.01324222       0.76538502      -2.06285529
H        0.67075778       0.27738502      -2.10785529
H       -0.14352222      -3.39524598      -0.74903529
H        1.65103778      -3.34519498      -0.65692529
C        0.85175778       2.00438502       1.52214471
C        0.08275778       3.12738502       2.20914471
H        1.89675778       2.03838502       1.82514471
H        0.42875778       1.04338502       1.81714471
H        0.77575778       2.08538502       0.43714471
H       -0.93924222       3.11638502       1.82814471
H        0.54081778       4.10525402       1.99949471
H        0.05693778       2.97176402       3.29777471
