30
Properties=species:S:1:pos:R:3 pbc="F F F"
C       -2.34479815      -0.65310560      -1.30655310
C       -3.80479815      -0.46610560      -0.88155310
C       -1.73779815       0.59289440      -1.88355310
C       -1.24579815       0.82689440      -3.12755310
C       -1.07879815       2.69289440      -1.96655310
N       -1.67979815       1.78689440      -1.20055310
N       -0.85779815       2.15489440      -3.16155310
H       -1.76479815      -0.97910560      -0.45455310
H       -2.27379815      -1.44210560      -2.05355310
H       -3.88879815       0.39389440      -0.21455310
H       -1.17179815       0.10289440      -3.92655310
H       -0.89879815       3.72789440      -1.70155310
H       -0.47179815       2.65289440      -3.95755310
H       -4.17365815      -1.37759160      -0.38846310
H       -4.40326815      -0.27737960      -1.78500310
C        4.12620185      -1.77910560       2.83044690
C        0.25220185      -0.44110560       1.38744690
C        0.88620185      -1.53010560       0.76444690
C        0.87120185       0.21489440       2.47444690
C        2.15320185      -1.97510560       1.27744690
C        2.13320185      -0.21910560       2.93344690
C        2.77820185      -1.31810560       2.34244690
H       -0.70779815      -0.08310560       1.05744690
H        0.41620185      -2.04010560      -0.06555310
H        0.37520185       1.02589440       2.98044690
H        2.62420185      -2.83310560       0.82144690
H        2.61220185       0.35989440       3.67244690
H        4.00820185      -2.74210560       3.32844690
H        4.51120185      -1.07010560       3.56044690
H        4.86025185      -1.88376760       2.01790690
