16
Properties=species:S:1:pos:R:3 pbc="F F F"
C        1.80759346      -0.80528587      -0.98023992
C        1.29859346       0.37471413      -1.79723992
H        1.83559346      -0.56728587       0.07776008
H        1.11459346      -1.64128587      -1.08223992
H        2.78759346      -1.13528587      -1.32823992
H        0.55359346       0.92271413      -1.22323992
H        2.12444346       1.05621613      -2.04929992
H        0.81485346       0.02743443      -2.72211992
C       -1.49840654      -0.37828587       0.91676008
C       -1.60140654       0.81871413       1.85876008
H       -0.75240654      -0.20228587       0.14976008
H       -1.20740654      -1.26228587       1.48676008
H       -2.46040654      -0.60128587       0.45476008
H       -2.47140654       0.66671413       2.48676008
H       -1.71021654       1.74713913       1.27894008
H       -0.70477654       0.87205013       2.49375008
