16
Properties=species:S:1:pos:R:3 pbc="F F F"
C       -0.66975642      -0.21223035      -2.10411494
C        0.29824358       0.80076965      -2.69811494
H       -0.29975642      -1.22623035      -2.22811494
H       -0.78675642      -0.01523035      -1.04111494
H       -1.64175642      -0.11923035      -2.58711494
H        1.26524358       0.67676965      -2.20911494
H       -0.05375642       1.79076965      -2.43011494
H        0.43372358       0.70471965      -3.78550494
C        0.07524358      -0.03523035       1.68488506
C        0.29324358      -0.56423035       3.10588506
H        0.24424358      -0.82223035       0.95788506
H       -0.93175642       0.36276965       1.57188506
H        0.77924358       0.77376965       1.48688506
H        0.07724358       0.25876965       3.78988506
H        1.34009358      -0.86242035       3.26458506
H       -0.38995642      -1.39209035       3.34650506
