27
Properties=species:S:1:pos:R:3 pbc="F F F"
C        2.96753188       2.19519108      -0.16602582
C       -0.02446812       0.28819108       1.19397418
C       -0.76146812       1.32019108       1.77597418
C        1.17653188       0.57419108       0.54397418
C        1.64853188       1.88819108       0.48497418
C       -0.28246812       2.61819108       1.73197418
C        0.90153188       2.90419108       1.07797418
H       -0.38346812      -0.72780892       1.25997418
H       -1.70046812       1.11119108       2.26797418
H        1.74553188      -0.22680892       0.09397418
H       -0.84446812       3.41519108       2.19097418
H        2.98453188       3.25019108      -0.44102582
H        3.05253188       1.62619108      -1.09102582
H        1.24153188       3.92819108       1.02897418
H        3.83132188       1.97637108       0.47894418
C       -1.09946812      -2.31980892      -1.28502582
C       -0.34746812      -3.63280892      -1.05502582
C       -1.24046812      -2.04380892      -2.79002582
O       -2.38746812      -2.38880892      -0.68002582
H       -0.53246812      -1.50480892      -0.84102582
H        0.64053188      -3.49380892      -1.48402582
H       -1.93046812      -2.75380892      -3.24602582
H       -1.62846812      -1.03480892      -2.93202582
H       -0.27046812      -2.11780892      -3.27902582
H       -2.28446812      -2.38480892       0.28197418
H       -0.83766812      -4.49197892      -1.53619582
H       -0.20166812      -3.83881892       0.01563418
