23
Properties=species:S:1:pos:R:3 pbc="F F F"
C        1.57814388      -1.24403379      -1.71293498
C       -0.58085612      -0.06803379      -1.25993498
C        0.36614388      -1.02203379      -0.86393498
C       -1.70585612       0.18596621      -0.49393498
C       -1.93385612      -0.54403379       0.66306502
C        0.13714388      -1.76703379       0.28106502
C       -1.01285612      -1.53603379       1.05606502
H       -0.41985612       0.49796621      -2.16693498
H       -2.41885612       0.93596621      -0.80393498
H        2.38614388      -1.61103379      -1.08193498
H        1.89314388      -0.29103379      -2.13893498
H       -2.81585612      -0.35703379       1.26006502
H        0.84714388      -2.52303379       0.58606502
H       -1.18685612      -2.11203379       1.95506502
H        1.40571388      -1.95984379      -2.53017498
C        1.35814388       1.89096621       1.18306502
C        1.18014388       3.39496621       1.01006502
H        0.57214388       1.48096621       1.81406502
H        1.31914388       1.41196621       0.20706502
H        2.33014388       1.68096621       1.63106502
H        1.88314388       3.76896621       0.28706502
H        1.35653388       3.91803621       1.96152502
H        0.16087988       3.61101621       0.65732502
