26
Properties=species:S:1:pos:R:3 pbc="F F F"
C       -2.00377138      -0.41480656       1.43162026
C       -3.29577138      -0.51180656       0.61262026
C       -2.22877138      -0.56580656       2.93562026
H       -1.30677138      -1.18380656       1.09262026
H       -1.54777138       0.56019344       1.24962026
H       -4.02977138       0.17619344       1.03062026
H       -2.58377138      -1.57480656       3.14162026
H       -3.72769338      -1.52313656       0.63820426
H       -3.13425038      -0.12864656      -0.40576074
H       -1.29264138      -0.42111656       3.49483926
H       -2.99161138       0.14028344       3.29549126
C        0.83922862       2.02419344      -2.44237974
C        1.47422862       0.21919344       0.85162026
C        1.25822862       1.22819344      -0.07837974
C        1.48522862      -1.11280656       0.44462026
C        1.07522862       0.92519344      -1.42737974
C        1.28922862      -1.42880656      -0.89437974
C        1.08222862      -0.41280656      -1.82337974
H        1.62122862       0.46619344       1.89462026
H        1.22022862       2.25219344       0.25162026
H        1.64922862      -1.89880656       1.16962026
H        1.29422862      -2.46180656      -1.21537974
H       -0.13877138       2.45419344      -2.25537974
H        0.81122862       1.58719344      -3.44237974
H        0.93722862      -0.66780656      -2.86437974
H        1.59848862       2.82005344      -2.43089774
