20
Properties=species:S:1:pos:R:3 pbc="F F F"
C       -1.22605289       0.06696627       0.13670754
C       -1.92605289       1.15096627       0.96470754
C       -0.54705289      -0.96203373       1.04470754
O       -2.18805289      -0.60703373      -0.67129246
H       -0.47905289       0.52596627      -0.51129246
H       -2.69905289       0.66896627       1.56470754
H       -1.27905289      -1.39703373       1.72770754
H       -0.11905289      -1.75703373       0.43370754
H        0.25394711      -0.50903373       1.62670754
H       -2.43105289       0.01596627      -1.37629246
H       -2.39342289       1.90987627       0.32001754
H       -1.21598289       1.62410627       1.65892754
C        2.34594711      -0.12003373      -0.44529246
C        3.63494711       0.48696627      -0.91129246
H        1.95594711       0.44496627       0.39970754
H        1.61894711      -0.07403373      -1.25629246
H        2.49694711      -1.16303373      -0.16429246
H        3.49094711       1.56296627      -1.02529246
H        3.84294711       0.06496627      -1.89529246
H        4.49739711       0.29578627      -0.25583246
