20
Properties=species:S:1:pos:R:3 pbc="F F F"
C       -0.34009894      -2.83428165       2.63208163
C       -0.36809894      -1.50328165       1.93908163
O       -0.32209894      -1.39428165       0.66108163
O       -0.44909894      -0.55628165       2.77808163
H       -1.31209894      -2.98928165       3.10708163
H        0.41090106      -2.82728165       3.42708163
H       -0.15257894      -3.69914165       1.97874163
C        1.81590106       1.46771835      -0.38691837
C       -0.09009894       1.20271835      -1.88091837
N        0.47590106       0.99271835      -0.68991837
N       -1.31409894       0.77671835      -2.12491837
N        0.58290106       1.81671835      -2.84391837
H        0.01890106       0.35271835      -0.03991837
H        1.86390106       2.54671835      -0.55391837
H        2.49990106       0.99571835      -1.09391837
H       -1.81509894       0.28271835      -1.40091837
H       -1.74609894       0.92971835      -3.02091837
H        1.51790106       2.14671835      -2.67691837
H        0.15290106       1.97671835      -3.74191837
H        2.22406106       1.27638835       0.61647163
