20
Properties=species:S:1:pos:R:3 pbc="F F F"
C       -1.99337190       1.74778071       0.57580302
C       -3.07037190       2.61078071       1.22780302
H       -2.42437190       0.83178071       0.18380302
H       -1.56237190       2.29078071      -0.26519698
H       -1.19537190       1.51078071       1.27880302
H       -3.86937190       2.77978071       0.50680302
H       -3.49613190       2.10158571       2.10498302
H       -2.66024190       3.59004771       1.51561302
C        0.05362810      -1.14721929      -0.77019698
C       -0.41437190      -1.98621929       0.41980302
C        1.43962810      -0.56321929      -0.59719698
O        1.79762810       0.40178071      -1.27019698
N        2.24462810      -1.14721929       0.27880302
H        0.08162810      -1.78121929      -1.65719698
H       -0.64937190      -0.33521929      -0.94919698
H       -0.66337190      -1.33321929       1.25880302
H        0.37262810      -2.67421929       0.72480302
H        3.15962810      -0.74421929       0.42680302
H        1.94662810      -1.95021929       0.80580302
H       -1.28059190      -2.60897329       0.15177302
