24
Properties=species:S:1:pos:R:3 pbc="F F F"
C        0.66051141       3.00716268       0.01995626
C        1.17451141       3.88316268      -1.11804374
H       -0.33348859       2.61516268      -0.18404374
H        1.32451141       2.14816268       0.11995626
H        0.69651141       3.56016268       0.95795626
H        1.23851141       3.26116268      -2.00604374
H        0.47363141       4.71389268      -1.28734574
H        2.18180141       4.26287268      -0.89179974
C        2.39051141      -2.21083732      -0.06804374
C       -0.81648859      -0.35383732      -0.95104374
C        0.45151141      -0.92583732      -1.04704374
C       -1.50248859      -0.38583732       0.26395626
C        1.04651141      -1.53383732       0.06295626
C       -0.91848859      -0.98383732       1.38295626
C        0.35251141      -1.55383732       1.27695626
O       -2.74848859       0.15716268       0.35195626
H       -1.26248859       0.11716268      -1.81004374
H        0.98851141      -0.88683732      -1.98504374
H       -3.05048859       0.43316268      -0.54504374
H       -1.45848859      -1.01483732       2.31795626
H        2.88151141      -2.24483732       0.90495626
H        3.01051141      -1.59583732      -0.72304374
H        0.79251141      -2.03483732       2.13995626
H        2.31715141      -3.22779132      -0.48086674
