33
Properties=species:S:1:pos:R:3 pbc="F F F"
C       -0.08067022       0.67532244      -2.06293757
C        0.31432978       1.84932244      -2.96593757
C       -1.54967022       0.66932244      -1.70793757
C       -1.98867022       1.33432244      -0.57093757
C       -2.48467022       0.04732244      -2.54393757
C       -3.34667022       1.38332244      -0.26693757
C       -3.85667022       0.13132244      -2.24893757
C       -4.27667022       0.78532244      -1.09893757
H        0.17432978      -0.26667756      -2.55193757
H        0.50432978       0.75032244      -1.14993757
H        0.08932978       2.77132244      -2.42993757
H       -1.27867022       1.81232244       0.08806243
H       -2.16067022      -0.47167756      -3.43393757
H       -3.67867022       1.90032244       0.62306243
H       -4.57967022      -0.31767756      -2.91493757
H       -5.33067022       0.83832244      -0.85893757
H       -0.25038022       1.79525444      -3.90836757
H        1.38871978       1.83111244      -3.20120757
C        3.35132978       0.96532244       3.01006243
C        1.34632978      -1.29367756       0.71906243
C        1.90332978      -0.13167756       1.30206243
C        1.70832978      -2.54167756       1.19606243
C        2.76332978      -0.23567756       2.37806243
C        2.61232978      -2.62467756       2.23106243
C        3.11732978      -1.47567756       2.82806243
H        0.64032978      -1.22167756      -0.09493757
H        1.62632978       0.84232244       0.92506243
H        1.29832978      -3.43667756       0.75106243
H        2.90232978      -3.59767756       2.60106243
H        3.24332978       0.89432244       4.09306243
H        2.77432978       1.83132244       2.68606243
H        3.79232978      -1.56567756       3.66506243
H        4.40996978       1.11778444       2.75309243
