25
Properties=species:S:1:pos:R:3 pbc="F F F"
C        1.96253367       2.63297659      -1.78808149
C       -0.40746633       0.02397659      -0.35008149
C       -1.61246633       0.39897659      -0.93008149
C        0.74653367       0.74797659      -0.62308149
C        0.70853367       1.84997659      -1.47708149
C       -1.66446633       1.48897659      -1.78508149
C       -0.50946633       2.20597659      -2.04508149
O       -2.73946633      -0.31002341      -0.66908149
H       -0.38946633      -0.83602341       0.28391851
H        1.67853367       0.44997659      -0.16408149
H       -2.61046633       1.81397659      -2.18008149
H       -3.43046633      -0.15902341      -1.35008149
H        2.58653367       2.70397659      -0.89608149
H        1.66953367       3.64697659      -2.06508149
H       -0.59346633       3.09997659      -2.56708149
H        2.54484467       2.19732659      -2.61338149
C       -0.41846633      -1.71202341       2.89391851
C        1.25053367      -2.87802341       0.99491851
S        1.25653367      -1.57402341       2.25891851
H       -0.61346633      -2.73402341       3.21591851
H       -0.54046633      -1.03602341       3.73891851
H       -1.14946633      -1.45502341       2.12891851
H        1.88553367      -2.57502341       0.16191851
H        0.23553367      -2.97402341       0.60891851
H        1.57794467      -3.86384341       1.35679851
