23
Properties=species:S:1:pos:R:3 pbc="F F F"
C       -2.93645578       0.27614781       2.93157951
C       -4.10645578       0.99714781       2.29357951
H       -2.98945578       0.34514781       4.01657951
H       -2.97445578      -0.78285219       2.66957951
H       -1.98945578       0.69514781       2.58557951
H       -5.02145578       0.66314781       2.77857951
H       -3.95917578       2.07506781       2.45602651
H       -4.17183578       0.78663781       1.21589151
C        3.21854422       0.05714781      -2.14642049
C       -0.40245578      -0.45085219       0.12157951
C        0.78054422      -0.27985219       0.77657951
C       -0.44345578      -0.42385219      -1.26242049
C        1.95554422      -0.07785219       0.04257951
C        0.72854422      -0.22785219      -1.99142049
C        1.94154422      -0.06285219      -1.34842049
H       -1.31145578      -0.61385219       0.68157951
H        0.80554422      -0.27085219       1.85657951
H       -1.38145578      -0.56785219      -1.77942049
H        2.88254422       0.08614781       0.57457951
H        0.67554422      -0.25485219      -3.06942049
H        3.19854422      -0.70485219      -2.92742049
H        4.05654422      -0.19485219      -1.50142049
H        3.41130422       1.03445781      -2.61302349
