22
Properties=species:S:1:pos:R:3 pbc="F F F"
C       -0.28185939      -0.58639432      -1.73610379
C       -0.03785939      -1.77339432      -2.66710379
C       -1.77085939      -0.28339432      -1.80910379
H        0.33914061       0.27060568      -2.00410379
H       -0.04185939      -0.91339432      -0.72710379
H        0.29114061      -1.39239432      -3.63310379
H        0.71714061      -2.44939432      -2.26410379
H       -2.14885939      -0.19139432      -0.79010379
H       -1.00133199      -2.28781432      -2.79784379
H       -2.22060439      -1.16227432      -2.29418379
H       -1.96270539       0.64398568      -2.36871379
C        0.55114061       0.67860568       1.53489621
C        1.97214061       0.64560568       2.11589621
C       -0.41285939       1.33960568       2.53289621
H        0.57014061       1.21960568       0.58889621
H        0.20414061      -0.33939432       1.36689621
H        1.88014061       0.28560568       3.14189621
H       -0.60785939       0.62960568       3.34089621
H        0.06814061       2.21460568       2.97389621
H        2.42872161       1.64637568       2.11737621
H        2.60364361      -0.10012432       1.61083621
H       -1.35558039       1.67992568       2.07962621
