20
Properties=species:S:1:pos:R:3 pbc="F F F"
C        2.90920844      -0.71401524       0.02902649
C        3.25220844      -0.52101524       1.51402649
H        2.17220844      -1.50901524      -0.08897351
H        2.49220844       0.20898476      -0.37097351
H        3.79820844      -0.95701524      -0.55197351
H        4.03320844       0.22298476       1.55102649
H        3.58542844      -1.47856524       1.94071649
H        2.36473844      -0.14961524       2.04737649
C       -2.24879156       0.89898476       1.50002649
C       -0.60479156      -0.87801524      -1.20597351
C       -1.45579156       0.48498476       0.29702649
C       -0.83279156       1.23898476      -0.64497351
N       -1.30079156      -0.83501524      -0.07397351
N       -0.31079156       0.36398476      -1.57297351
H       -0.32879156      -1.77501524      -1.74497351
H        0.20820844       0.61398476      -2.40697351
H       -0.78879156       2.31898476      -0.67897351
H       -1.83779156       1.82598476       1.89702649
H       -2.12879156       0.12998476       2.26402649
H       -3.32081156       1.01777476       1.28403649
