19
Properties=species:S:1:pos:R:3 pbc="F F F"
C       -1.37252590      -1.32459393       1.37140164
C       -2.34152590      -1.34859393       2.53440164
H       -1.79852590      -0.80059393       0.51240164
H       -0.45752590      -0.81159393       1.67140164
H       -1.09752590      -2.34159393       1.08840164
H       -1.96552590      -2.07059393       3.26140164
H       -3.33357990      -1.68710393       2.20087164
H       -2.38613590      -0.37581393       3.04597164
C        0.89747410       0.82940607      -0.86359836
C        2.42847410       0.78440607      -0.80759836
C        0.43747410       1.10940607      -2.28759836
H        0.48947410      -0.12259393      -0.52659836
H        0.52147410       1.62040607      -0.21459836
H        2.79547410       1.67040607      -1.31559836
H        0.82047410       2.08440607      -2.58359836
H        0.87047410       0.36340607      -2.95559836
H        2.81449710      -0.10117393      -1.33364936
H        2.78947210       0.86470607       0.22837064
H       -0.65080339       1.11158607      -2.44774636
