34
Properties=species:S:1:pos:R:3 pbc="F F F"
C       -1.28941040       0.65706860       5.58847747
C       -1.59341040       0.21306860       1.32147747
C       -0.36241040       0.07106860       1.95047747
C       -2.72941040       0.49806860       2.07047747
C       -0.27141040       0.21406860       3.33047747
C       -2.62941040       0.64206860       3.45147747
C       -1.40341040       0.49206860       4.09447747
O       -1.68141040       0.07606860      -0.02852253
H       -0.82341040      -0.10193140      -0.41252253
H        0.52558960      -0.13793140       1.37847747
H       -3.67541040       0.61906860       1.56647747
H        0.68858960       0.11006860       3.81947747
H       -3.51141040       0.87906860       4.03047747
H       -0.55741040      -0.06093140       5.95547747
H       -2.24041040       0.42606860       6.07147747
H       -0.94642040       1.66513860       5.86445247
C        0.76958960       0.69806860      -2.07952253
C       -0.30741040       1.27906860      -2.95052253
C        0.50558960      -0.72093140      -4.02252253
C        3.51758960      -0.57793140      -1.70252253
C        2.53058960      -1.01393140      -2.78852253
O        2.80258960      -1.97593140      -3.51152253
N        1.38958960      -0.31893140      -2.93752253
H        1.44058960       1.49106860      -1.77852253
H        0.36158960       0.21206860      -1.20452253
H        0.12158960       2.07006860      -3.56652253
H       -1.14141040       1.66706860      -2.37152253
H        0.25558960      -1.77593140      -3.93852253
H        4.45158960      -1.07393140      -1.96552253
H       -0.62444040       0.44805860      -3.59776253
H       -0.39115040      -0.09839540      -3.88722253
H        0.94985960      -0.54683540      -5.01364253
H        3.68739960       0.50888160      -1.70252253
H        3.20414960      -0.92938140      -0.70841953
