15
Properties=species:S:1:pos:R:3 pbc="F F F"
C        0.87647158       1.69493212      -1.32683840
C        2.25447158       2.03793212      -1.87083840
H        0.10447158       2.03093212      -2.02083840
H        0.80147158       0.61693212      -1.19883840
H        0.72347158       2.15893212      -0.35283840
H        3.00347158       1.78593212      -1.12583840
H        2.34476548       3.10712212      -2.11305540
H        2.46025158       1.44767212      -2.77595970
C       -1.76052842       0.07593212       1.16116160
C       -0.74252842      -1.00406788       0.78716160
O       -0.72852842      -1.47406788      -0.37283840
O        0.04147158      -1.40006788       1.67516160
H       -1.23352842       0.90693212       1.63316160
H       -2.47652842      -0.32706788       1.88016160
H       -2.30455342       0.47073212       0.29043160
