35
Properties=species:S:1:pos:R:3 pbc="F F F"
C       -0.05844930      -0.54155662       3.32913416
C       -1.72244930      -0.48255662       1.37313416
C       -1.30344930      -0.92655662       2.65913416
C       -2.94944930      -1.13655662       1.09213416
C       -2.20544930      -1.85955662       3.05913416
C       -1.91944930       0.65944338      -0.72986584
C       -3.14044930      -0.02055662      -0.98886584
C       -1.23044930       0.45644338       0.46513416
C       -3.67144930      -0.91255662      -0.07286584
N       -3.22844930      -1.93755662       2.16813416
H       -1.56244930       1.39344338      -1.43986584
H       -3.66944930       0.16744338      -1.91386584
H       -0.44944930       1.12744338       0.77413416
H       -4.60644930      -1.41955662      -0.26086584
H        0.47255070       0.17444338       2.70113416
H        0.55255070      -1.43255662       3.34613416
H       -2.14544930      -2.45355662       3.96113416
H       -4.03644930      -2.54055662       2.27613416
H       -0.12399730      -0.11112662       4.33929416
C        2.51555070       3.60844338      -2.52786584
C        1.55955070       1.71644338      -1.13486584
C        2.52755070       2.16544338      -2.05386584
C        1.61655070       0.40644338      -0.64886584
C        3.56055070       1.28144338      -2.43286584
C        2.58855070      -0.46955662      -1.08686584
C        3.60755070      -0.04255662      -1.93986584
O        2.62955070      -1.72555662      -0.59086584
H        0.74655070       2.36544338      -0.85586584
H        0.98755070      -0.01155662       0.09613416
H        1.53655070       4.05544338      -2.34986584
H        2.69955070       3.61944338      -3.60086584
H        4.34155070       1.62744338      -3.09186584
H        4.40455070      -0.70855662      -2.23986584
H        3.36755070      -2.23255662      -0.94486584
H        3.29371570       4.19543338      -2.01805584
