20
Properties=species:S:1:pos:R:3 pbc="F F F"
C       -0.42737130       2.50158716      -0.78581520
C       -0.81237130       3.10958716      -2.13681520
C       -1.60637130       2.15058716       0.10818480
H        0.18262870       1.62258716      -0.96181520
H        0.17362870       3.25158716      -0.26781520
H       -1.56537130       3.88358716      -1.97381520
H       -2.29937130       2.99558716       0.12618480
H       -2.10937130       1.30858716      -0.35581520
H       -1.15840130       2.34063716      -2.84319720
H        0.07622870       3.57452716      -2.58872020
H       -1.29400130       1.92674716       1.13887280
C        1.45162870      -0.55941284       0.61418480
C        0.43962870      -2.97341284      -0.27781520
S        0.40762870      -1.91241284       1.17918480
H        0.98862870      -0.07841284      -0.23881520
H        1.62262870       0.14458716       1.42418480
H        2.41862870      -0.95841284       0.30518480
H        1.12162870      -3.80241284      -0.08881520
H        0.80862870      -2.39741284      -1.12681520
H       -0.55321130      -3.37705284      -0.52548420
