19
Properties=species:S:1:pos:R:3 pbc="F F F"
C        0.52864572       3.24654044      -0.53447002
O        1.37564572       2.10554044      -0.41547002
H        2.23964572       2.42654044      -0.12147002
H        0.62664572       3.85354044       0.36552998
H        0.82018572       3.84242044      -1.41193002
H       -0.51266428       2.89992044      -0.60885002
C       -0.10135428      -0.91845956      -1.74147002
C       -0.51235428      -1.22445956       0.67552998
N        0.37264572      -0.29045956       0.96452998
N       -0.75735428      -1.53845956      -0.58547002
N       -1.15235428      -1.84245956       1.64752998
H        0.78464572       0.26854044       0.22652998
H        0.57364572      -0.06145956       1.92352998
H       -1.47635428      -2.24345956      -0.76147002
H       -1.75635428      -2.63045956       1.39852998
H       -0.96835428      -1.63145956       2.61252998
H        0.97764572      -1.07545956      -1.68247002
H       -0.30035428       0.15254044      -1.75547002
H       -0.47026428      -1.35391956      -2.68183002
