24
Properties=species:S:1:pos:R:3 pbc="F F F"
C        2.61528569      -0.09827226      -2.74139712
C        3.03428569       1.36772774      -2.63639712
H        2.76328569      -0.43027226      -3.76839712
H        3.22728569      -0.70727226      -2.07639712
H        1.57028569      -0.23127226      -2.46739712
H        2.90628569       1.68972774      -1.60139712
H        2.41048769       1.99794974      -3.28731712
H        4.09742869       1.47072874      -2.89930162
C        1.47828569       0.90172774       2.26260288
C        0.53028569      -0.33027226       0.27460288
C        0.31728569       0.35972774       1.46560288
C       -0.54071431      -0.84727226      -0.44839712
C       -0.98371431       0.49972774       1.93860288
C       -1.83671431      -0.68827226       0.03160288
C       -2.05971431      -0.01327226       1.22660288
O       -2.89371431      -1.18627226      -0.65939712
H        1.54028569      -0.46927226      -0.08839712
H       -0.38471431      -1.37227226      -1.37739712
H        1.22628569       1.89972774       2.62160288
H        2.35528569       0.99372774       1.62060288
H       -1.16271431       1.02672774       2.86460288
H       -3.06271431       0.10672774       1.61060288
H       -3.71271431      -1.11827226      -0.16739712
H        1.71560369       0.25036674       3.11665788
