27
Properties=species:S:1:pos:R:3 pbc="F F F"
C        1.84772187       1.57097663      -1.06071256
C        1.35172187       0.66097663      -2.17971256
N        3.09672187       1.03197663      -0.44471256
H        2.04472187       2.56897663      -1.46371256
H        1.06072187       1.66497663      -0.30371256
H        1.08672187      -0.31102337      -1.76071256
H        2.15472187       0.50497663      -2.90471256
H        3.84772187       0.96697663      -1.12171256
H        3.41772187       1.63497663       0.30428744
H        2.95072187       0.10897663      -0.05171256
H        0.47580187       1.06480663      -2.70856956
C       -1.66427813      -2.34602337      -1.61871256
C       -1.54927813       0.78497663       0.58228744
C       -0.56227813       0.42697663       1.50528744
C       -1.91527813      -0.10802337      -0.42771256
C       -1.31127813      -1.36902337      -0.51871256
C        0.05072187      -0.82602337       1.41728744
C       -0.33127813      -1.71502337       0.41828744
O       -0.19127813       1.31697663       2.47528744
H       -2.03127813       1.74397663       0.67028744
H       -2.65627813       0.20197663      -1.14071256
H        0.81072187      -1.11002337       2.13228744
H        0.48572187       0.96297663       3.05728744
H       -1.27027813      -3.33702337      -1.38171256
H       -1.12927813      -1.99902337      -2.50471256
H        0.14772187      -2.68502337       0.36228744
H       -2.73377313      -2.42846337      -1.86240356
