22
Properties=species:S:1:pos:R:3 pbc="F F F"
C       -0.48139776       2.61787837       0.39696291
C       -0.52939776       3.18987837      -1.01903709
H       -1.18039776       3.15587837       1.03696291
H       -0.78739776       1.57687837       0.37496291
H        0.52660224       2.68687837       0.80696291
H        0.34860224       2.84787837      -1.56703709
H       -0.55151776       4.28953837      -1.00262409
H       -1.42489776       2.80807837      -1.53119299
C        0.18360224      -1.19612163       0.36396291
C        1.06460224      -2.12312163       1.19996291
C        0.92660224      -0.78612163      -0.89203709
C       -1.14139776      -1.86312163       0.00296291
H       -0.02139776      -0.30612163       0.94696291
H        2.02560224      -1.63112163       1.33196291
H        1.22860224      -3.05112163       0.64696291
H        1.17360224      -1.67112163      -1.47903709
H        0.30460224      -0.12312163      -1.49403709
H        1.84460224      -0.25912163      -0.62503709
H       -1.71639776      -2.10012163       0.89696291
H       -1.73939776      -1.17812163      -0.59703709
H       -0.96239776      -2.77212163      -0.57103709
H        0.66213224      -2.35783163       2.19641991
