17
Properties=species:S:1:pos:R:3 pbc="F F F"
C       -0.63838095      -1.04205510      -1.00596541
C       -0.83538095      -1.90305510      -2.25496541
O       -0.09538095      -1.79205510       0.06903459
H        0.02061905      -0.20205510      -1.23196541
H       -1.60338095      -0.64905510      -0.68996541
H       -1.50038095      -2.72505510      -1.98596541
H        0.85561905      -1.92705510      -0.08496541
H        0.12890905      -2.31406610      -2.58844541
H       -1.30634095      -1.33905410      -3.07355541
C        0.35661905       1.86094490       1.28103459
C        1.14161905       3.01494490       1.90203459
H       -0.54538095       2.23094490       0.79303459
H        0.97361905       1.37094490       0.52803459
H        0.08661905       1.13394490       2.04503459
H        1.33261905       3.76594490       1.13403459
H        2.09861905       2.59594490       2.20903459
H        0.68109905       3.49561590       2.77774459
