15
Properties=species:S:1:pos:R:3 pbc="F F F"
C       -2.12856082      -2.48866064      -0.83323083
O       -1.40456082      -1.27066064      -0.93723083
H       -0.61656082      -1.29466064      -0.36323083
H       -1.59556082      -3.15566064      -0.15623083
H       -3.13658082      -2.29601064      -0.43727083
H       -2.17479082      -2.97408064      -1.81925083
C       -0.16456082       1.88533936       0.84476917
C        0.95643918       0.94133936       0.45276917
O        0.75443918      -0.26566064       0.34076917
N        2.14743918       1.47033936       0.24176917
H        0.23943918       2.87333936       1.02976917
H       -0.60156082       1.51833936       1.77276917
H        2.89843918       0.86033936      -0.02323083
H        2.32743918       2.44333936       0.50976917
H       -0.93450082       1.95027936       0.06183917
