30
Properties=species:S:1:pos:R:3 pbc="F F F"
C        1.11359362       0.95894960       2.77101077
C       -1.07840638      -0.64505040       0.15701077
C       -0.77040638       0.45594960       0.99901077
C        0.39759362       0.09894960       1.76801077
C        0.73359362      -1.16305040       1.37701077
C       -2.15540638      -0.63405040      -0.72198923
C       -2.94540638       0.50194960      -0.76498923
C       -1.58840638       1.59494960       0.93801077
C       -2.66940638       1.60594960       0.05401077
N       -0.14240638      -1.61205040       0.41401077
H       -0.10840638      -2.53705040      -0.00198923
H       -2.36340638      -1.48605040      -1.35498923
H        1.56459362      -1.73405040       1.77501077
H       -3.79040638       0.53794960      -1.43798923
H       -1.38740638       2.43894960       1.57601077
H        1.51459362       0.32794960       3.56301077
H        0.37559362       1.60994960       3.24301077
H       -3.31140638       2.47694960       0.00301077
H        1.90283362       1.58990960       2.33628077
C        2.04459362      -0.50405040      -1.73198923
C        1.82659362       0.56794960      -2.78898923
N        3.47659362      -0.90905040      -1.66898923
H        1.73359362      -0.10905040      -0.75798923
H        1.41059362      -1.36705040      -1.96398923
H        1.94159362       0.11894960      -3.77798923
H        2.56359362       1.36494960      -2.67098923
H        4.05359362      -0.12405040      -1.37898923
H        3.60659362      -1.63905040      -0.96798923
H        3.81059362      -1.25805040      -2.55998923
H        0.82025362       0.99964960      -2.68450923
