25
Properties=species:S:1:pos:R:3 pbc="F F F"
C        3.33043405       2.16039632      -0.21847927
C        2.60543405       1.86739632       1.08752073
O        1.43543405       2.22439632       1.28452073
O        3.31743405       1.26539632       1.92252073
H        3.92943405       1.27939632      -0.45347927
H        4.01343405       2.99739632      -0.07247927
H        2.68155405       2.34866632      -1.08652927
C       -0.50556595      -0.06760368      -0.03047927
C        0.74143405      -0.90760368       0.25652073
C       -1.13856595      -2.37460368       0.36852073
C       -2.85856595       0.15239632      -1.94647927
C       -2.53556595      -1.12360368      -1.16847927
O       -3.23256595      -2.13560368      -1.33447927
N       -1.46856595      -1.12960368      -0.33547927
H       -0.81256595       0.48239632       0.86052073
H       -0.31656595       0.60539632      -0.85347927
H        1.47943405      -0.37360368       0.84152073
H        1.18243405      -1.24660368      -0.67947927
H       -1.03756595      -3.19060368      -0.34947927
H       -2.49756595       1.00639632      -1.38347927
H        0.36509405      -1.76729368       0.83037073
H       -0.17243595      -2.18223368       0.85800073
H       -1.90605595      -2.63091368       1.11369073
H       -2.38595595       0.09547632      -2.93813927
H       -3.94489595       0.27317632      -2.07013927
