19
Properties=species:S:1:pos:R:3 pbc="F F F"
C        1.72769332      -1.69887711       0.41421802
C        2.53069332      -1.11087711       1.57021802
H        0.65969332      -1.60087711       0.60421802
H        1.97869332      -1.18887711      -0.51778198
H        1.95769332      -2.75687711       0.30221802
H        3.59069332      -1.29387711       1.38121802
H        2.23223132      -1.59097711       2.51383802
H        2.35192532      -0.02741711       1.63462802
C       -0.94330668       0.76112289      -0.52878198
C       -1.86030668       0.02512289      -1.50778198
C       -1.52130668       2.07612289       0.01421802
H       -0.78030668       0.11212289       0.32821802
H        0.02069332       0.95612289      -1.00078198
H       -2.85730668      -0.04387711      -1.07378198
H       -0.85530668       2.45412289       0.79221802
H       -1.52830668       2.82312289      -0.78078198
H       -1.48601068      -0.99082711      -1.70208198
H       -1.95811968       0.57867089      -2.45330198
H       -2.53347568       1.94250789       0.42367802
