15
Properties=species:S:1:pos:R:3 pbc="F F F"
C        0.14630585      -0.71413704      -1.91471328
C       -0.57869415      -1.00713704      -0.60871328
O       -1.74869415      -0.65013704      -0.41171328
O        0.13330585      -1.60913704       0.22628672
H        0.74530585      -1.59513704      -2.14971328
H        0.82930585       0.12286296      -1.76871328
H       -0.50257415      -0.52586704      -2.78276328
C        0.75430585       1.39886296       1.79028672
C        1.23730585       2.51886296       0.87328672
H       -0.24669415       1.59986296       2.17128672
H        0.74530585       0.47486296       1.23128672
H        1.44530585       1.27486296       2.62328672
H        2.10330585       2.17486296       0.30328672
H        1.52436585       3.40141296       1.46379672
H        0.41665585       2.75932296       0.18139672
