26
Properties=species:S:1:pos:R:3 pbc="F F F"
C       -1.27961117       2.00729171      -1.57816088
C       -0.06061117       1.61829171      -2.46516088
C       -0.68861117       2.82729171      -0.46516088
H       -1.79061117       1.13229171      -1.18116088
H       -1.96761117       2.62429171      -2.15916088
H        0.30238883       0.62929171      -2.18316088
H       -0.33861117       1.64129171      -3.51816088
H       -0.34861117       2.15329171       0.32283912
H       -1.41061117       3.54029171      -0.06316088
H        0.71060083       2.37013171      -2.24162088
H        0.16831383       3.33600171      -0.93088088
C        2.61238883      -0.51670829       1.58183912
C       -1.40061117      -1.41770829       0.00783912
C       -1.28461117      -0.78570829       1.24883912
C       -0.24261117      -1.77370829      -0.64716088
C        0.01238883      -0.48270829       1.78183912
C        1.02938883      -1.47270829      -0.12616088
C        1.19038883      -0.83370829       1.08883912
H       -2.37061117      -1.64570829      -0.41316088
H       -2.17561117      -0.51070829       1.79783912
H       -0.32361117      -2.27070829      -1.60216088
H        0.04338883      -0.00470829       2.74383912
H        1.90838883      -1.75070829      -0.69016088
H        3.07738883       0.15129171       0.85483912
H        3.18138883      -1.44670829       1.59083912
H        2.66991683      -0.05792829       2.57993912
