20
Properties=species:S:1:pos:R:3 pbc="F F F"
C       -0.70847850       2.23474451      -1.42591991
C        1.29152150       0.11474451       0.75008009
C        0.29252150       1.28774451      -0.82591991
C        1.40752150       0.71074451      -1.36391991
N        0.25052150       0.89774451       0.49508009
N        2.00952150      -0.01725549      -0.36191991
H        1.46852150      -0.31125549       1.71708009
H        2.85752150      -0.55725549      -0.46191991
H        1.82052150       0.75674451      -2.36291991
H       -0.32747850       2.54074451      -2.39891991
H       -0.75047850       3.10374451      -0.76691991
H       -1.73347850       1.84144451      -1.49410991
C       -1.77047850      -2.04225549       0.63608009
C       -2.38847850      -2.74725549       1.91308009
H       -1.52147850      -1.00325549       0.86508009
H       -0.85647850      -2.55425549       0.32808009
H       -2.47947850      -2.05625549      -0.18891991
H       -1.63447850      -2.66325549       2.69508009
H       -3.30959850      -2.25795549       2.26250009
H       -2.58652850      -3.81315549       1.72706009
