27
Properties=species:S:1:pos:R:3 pbc="F F F"
C       -0.52261709      -0.16772327      -2.93512636
C       -0.74061709       0.07327673      -0.33012636
C       -1.15561709      -0.44772327      -1.60312636
C       -1.63461709      -0.43572327       0.65087364
C       -2.24861709      -1.22172327      -1.35712636
C        0.29938291       0.91827673       0.08287364
C        0.42338291       1.22627673       1.43787364
C       -0.47361709       0.70427673       2.38487364
C       -1.51261709      -0.13072327       2.00187364
N       -2.53961709      -1.22272327      -0.01212636
H        0.99538291       1.31427673      -0.64212636
H        1.22238291       1.87827673       1.76187364
H       -0.34361709       0.96127673       3.42487364
H       -0.60461709      -1.06272327      -3.55212636
H        0.53638291       0.03127673      -2.78112636
H       -2.80261709      -1.76272327      -2.11412636
H       -3.27061709      -1.78572327       0.43287364
H       -2.21261709      -0.53672327       2.71787364
H       -0.98989709       0.67409673      -3.46710636
C        4.02338291       0.69227673      -0.53012636
C        4.88638291       0.04627673       0.55587364
H        3.24638291       0.00027673      -0.86312636
H        3.55138291       1.58227673      -0.12312636
H        4.64838291       0.98727673      -1.37112636
H        5.76738291       0.66827673       0.71287364
H        5.18576291      -0.96602327       0.24666364
H        4.34344291       0.02883673       1.51238364
