17
Properties=species:S:1:pos:R:3 pbc="F F F"
C        2.16920197       1.40545586       0.13987693
C        2.94020197       0.66345586      -0.95512307
H        2.85920197       2.00645586       0.73187693
H        1.43720197       2.06745586      -0.32112307
H        1.66020197       0.69645586       0.79187693
H        3.45420197       1.40545586      -1.56412307
H        3.68678397      -0.00041214      -0.49480307
H        2.24929597       0.09823486      -1.59791307
C       -1.14479803      -0.51654414       0.12187693
C       -2.10579803       0.35745586       0.93687693
O       -1.76979803      -1.75254414      -0.18212307
H       -0.88179803      -0.00054414      -0.80312307
H       -0.23879803      -0.69754414       0.70087693
H       -2.33579803      -0.17154414       1.86187693
H       -1.28479803      -2.17554414      -0.90312307
H       -3.04046503       0.52217486       0.38075693
H       -1.62390403       1.30894286       1.20604693
