23
Properties=species:S:1:pos:R:3 pbc="F F F"
C       -0.37337506      -2.61978345      -2.42288227
C       -1.07837506       0.44621655       0.54511773
C       -1.82237506       0.41221655      -0.61588227
C       -0.08837506      -0.51278345       0.74211773
C       -1.57137506      -0.55878345      -1.59388227
C        0.15762494      -1.49878345      -0.21088227
C       -0.57937506      -1.52778345      -1.39788227
H       -1.26437506       1.20121655       1.29411773
H       -2.59737506       1.15021655      -0.77288227
H        0.49162494      -0.49578345       1.65411773
H       -2.16437506      -0.56778345      -2.49788227
H        0.92862494      -2.21978345      -0.02788227
H        0.66062494      -2.96678345      -2.38988227
H       -0.52337506      -2.19778345      -3.40388227
H       -1.05485506      -3.46786545      -2.26059027
C        1.71962494       2.24121655       2.04311773
C        2.93162494       3.08221655       2.48111773
H        0.92062494       2.89021655       1.68411773
H        1.99662494       1.55921655       1.24311773
H        1.35062494       1.64921655       2.88111773
H        3.13462494       3.83221655       1.71711773
H        2.69686494       3.58486655       3.43097773
H        3.81722494       2.43602655       2.57134773
