27
Properties=species:S:1:pos:R:3 pbc="F F F"
C       -0.60689887       3.95590617       0.48709746
C        0.68710113       0.46490617      -0.00890254
C       -0.17289887       1.36790617       0.68309746
C        0.07010113       2.67590617       0.13909746
C        1.02710113       2.51490617      -0.80990254
C        0.70910113      -0.90209383       0.25109746
C       -0.13489887      -1.37409383       1.24309746
C       -1.00189887      -0.49909383       1.92809746
C       -1.03189887       0.86690617       1.66409746
N        1.41610113       1.19990617      -0.90890254
H        1.36210113      -1.56409383      -0.29590254
H       -0.14689887      -2.42809383       1.46609746
H        1.98710113       0.80390617      -1.65090254
H       -1.66489887      -0.90709383       2.66209746
H        1.38710113       3.31790617      -1.43990254
H       -1.73989887       1.51690617       2.14409746
H       -1.63489887       3.71390617       0.75809746
H       -0.67789887       4.54490617      -0.42890254
H       -0.19046887       4.60833517       1.26871746
C       -0.00189887      -4.03709383      -1.76190254
C       -0.86989887      -5.23709383      -2.14990254
H       -0.27889887      -3.67809383      -0.77090254
H        1.04710113      -4.32009383      -1.75890254
H       -0.13089887      -3.23109383      -2.48390254
H       -0.76489887      -5.99009383      -1.36790254
H       -1.93002087      -4.95548783      -2.23260254
H       -0.49086887      -5.68615283      -3.07978254
