27
Properties=species:S:1:pos:R:3 pbc="F F F"
C       -2.11446449       4.02562111       1.70856900
C       -0.77246449       0.94662111      -0.01443100
C       -1.64746449       1.85062111       0.54656900
C        0.57653551       1.23362111      -0.08543100
C       -1.17046449       3.04062111       1.08656900
C        1.06553551       2.40862111       0.42756900
C        0.19553551       3.30862111       1.01956900
H       -1.14546449       0.01462111      -0.42043100
H       -2.70546449       1.62162111       0.58056900
H        1.25353551       0.52662111      -0.54643100
H        2.12353551       2.62362111       0.36256900
H       -2.97746449       4.13362111       1.04856900
H       -1.62846449       4.99962111       1.75956900
H        0.59153551       4.22762111       1.42556900
H       -2.47711449       3.75255111       2.71052600
C       -0.42046449      -3.51437889      -2.52843100
C       -0.22346449      -2.69537889      -0.07443100
C        0.25653551      -2.96437889      -1.31543100
C        1.93253551      -2.25837889      -0.08443100
N        0.83453551      -2.22737889       0.66856900
N        1.60953551      -2.69637889      -1.29443100
H       -1.24846449      -2.80737889       0.24656900
H        0.78153551      -1.85237889       1.60956900
H       -1.47446449      -3.66537889      -2.31243100
H        0.01153551      -4.48937889      -2.75143100
H        2.91653551      -1.92637889       0.21856900
H       -0.31421449      -2.86744889      -3.41171900
