31
Properties=species:S:1:pos:R:3 pbc="F F F"
C       -0.77304675      -1.88861310      -1.25754276
C       -0.30404675      -3.19261310      -0.61954276
C       -2.04704675      -1.38961310      -0.60854276
O       -2.63904675      -2.10161310       0.21845724
N       -2.50204675      -0.21461310      -0.99454276
H       -0.00404675      -1.13461310      -1.12054276
H       -0.93104675      -2.01861310      -2.32654276
H       -0.25004675      -3.02361310       0.45845724
H       -3.34704675       0.17938690      -0.61354276
H       -1.95304675       0.29238690      -1.68054276
H        0.68690325      -3.48227710      -0.99915476
H       -1.02682675      -3.99970510      -0.80978576
C        0.78595325       3.25738690      -1.57654276
C        0.43895325       0.60238690       1.11945724
C        1.14695325       1.16938690       0.01945724
C        0.43595325       2.35038690      -0.40154276
C       -0.62904675       2.46038690       0.44645724
C        0.87695325      -0.55161310       1.76345724
C        2.02895325      -1.16161310       1.28645724
C        2.27995325       0.49638690      -0.47154276
C        2.72695325      -0.64561310       0.17945724
N       -0.62604675       1.42638690       1.36945724
H       -1.31804675       1.30938690       2.10245724
H        0.33995325      -0.95261310       2.61245724
H       -1.37904675       3.22638690       0.41545724
H        2.39595325      -2.05561310       1.77645724
H        2.81995325       0.89638690      -1.31854276
H        1.84695325       3.14838690      -1.79354276
H        0.60695325       4.29338690      -1.28654276
H        3.61895325      -1.15261310      -0.15954276
H        0.22627325       3.03953430      -2.49811676
