27
Properties=species:S:1:pos:R:3 pbc="F F F"
C       -1.83676850      -0.22159575      -1.18908299
C       -2.83776850      -1.34059575      -1.39708299
C       -0.72376850      -0.54259575      -0.20108299
C       -1.01276850      -0.99059575       1.09891701
C        0.62423150      -0.37859575      -0.55208299
C        0.00323150      -1.29559575       2.00291701
C        1.63423150      -0.66959575       0.34291701
C        1.33223150      -1.12359575       1.62491701
O        2.34523150      -1.39359575       2.48391701
H       -1.39676850       0.04540425      -2.15108299
H       -2.36076850       0.65940425      -0.81308299
H       -3.25376850      -1.61459575      -0.42708299
H       -2.04176850      -1.08859575       1.41491701
H        0.88323150      -0.03559575      -1.54508299
H       -0.23376850      -1.63759575       2.99991701
H        2.66823150      -0.54759575       0.05291701
H        2.03823150      -1.52559575       3.39991701
H       -2.35244850      -2.21958575      -1.84634499
H       -3.67569850      -0.97190575      -2.00695099
C        0.04923150       2.93640425      -1.80308299
C        0.35623150       4.39140425      -2.15608299
H       -0.37876850       2.85640425      -0.80408299
H       -0.65876850       2.52840425      -2.52508299
H        0.96923150       2.35240425      -1.84508299
H        0.75923150       4.41740425      -3.17108299
H        1.10990150       4.78835425      -1.46009099
H       -0.56224850       4.99647425      -2.13939599
