18
Properties=species:S:1:pos:R:3 pbc="F F F"
C       -1.96085315       1.32504403       0.86163689
C       -2.89185315       0.39804403       0.10163689
O       -1.15585315       0.56004403       1.74263689
H       -1.33885315       1.88204403       0.16063689
H       -2.55185315       2.03804403       1.43763689
H       -2.27585315      -0.32395597      -0.43136311
H       -0.63485315       1.19504403       2.25863689
H       -3.51000015       0.97306403      -0.60352311
H       -3.50320215      -0.15884997       0.82697689
C        1.40214685      -0.91695597      -2.12636311
C        1.59614685      -0.60095597      -0.67136311
O        2.51614685      -1.09095597      -0.02436311
N        0.68814685       0.17704403      -0.12836311
H        0.69314685       0.27304403       0.87263689
H       -0.02985315       0.59304403      -0.69436311
H        2.26414685      -1.48095597      -2.48536311
H        1.35314685       0.02104403      -2.68136311
H        0.47761685      -1.48990597      -2.29058011
