23
Properties=species:S:1:pos:R:3 pbc="F F F"
C        0.84184484       0.06928353       4.46125181
C       -0.39715516      -0.11671647       3.61425181
O       -0.41115516       0.28928353       2.43625181
O       -1.35315516      -0.68671647       4.18325181
H        1.00384484      -0.81371647       5.08125181
H        0.66384484       0.91628353       5.12725181
H        1.75168484       0.27235353       3.87733181
C       -1.13215516      -0.63471647      -4.53774819
C       -0.50715516       0.02428353      -0.86374819
C       -1.13315516      -0.30071647      -2.05574819
C        0.80584484       0.38428353      -0.83774819
C       -0.42915516      -0.29471647      -3.24974819
C        1.52284484       0.43928353      -2.00974819
C        0.90884484       0.10028353      -3.22474819
O        1.34184484       0.69928353       0.38725181
H       -1.06815516       0.10228353       0.04325181
H       -2.18515516      -0.55871647      -2.05074819
H        0.68584484       0.55328353       1.09925181
H        2.55784484       0.74228353      -1.98774819
H       -1.58715516      -1.61871647      -4.41674819
H       -0.40715516      -0.69971647      -5.34874819
H        1.47884484       0.14128353      -4.14274819
H       -1.91562116       0.09771353      -4.78212819
