26
Properties=species:S:1:pos:R:3 pbc="F F F"
C        0.14880698      -1.17880791      -1.35529271
C       -0.35719302      -1.19980791      -2.81029271
C        0.25380698       0.18719209      -0.71929271
C       -0.80919302       0.77219209      -0.06429271
C        1.44580698       0.87619209      -0.77529271
C       -0.68219302       2.03619209       0.53970729
C        1.58180698       2.11819209      -0.20629271
C        0.53080698       2.69719209       0.45070729
H       -0.49619302      -1.81280791      -0.75029271
H        1.13580698      -1.60580791      -1.32729271
H       -0.07519302      -2.16880791      -3.20829271
H       -1.74519302       0.24119209       0.00070729
H        2.29380698       0.43519209      -1.28029271
H       -1.51619302       2.48819209       1.06070729
H        2.52780698       2.63919209      -0.27229271
H        0.64780698       3.67319209       0.90370729
H        0.12650298      -0.41862791      -3.41510271
H       -1.45548702      -1.16566791      -2.86113971
C       -0.19319302      -2.39080791       2.12370729
C       -1.59419302      -2.80780791       2.55970729
H        0.04280698      -2.78480791       1.13970729
H       -0.11619302      -1.30480791       2.11070729
H        0.53480698      -2.77780791       2.83470729
H       -1.69019302      -2.46780791       3.59170729
H       -1.70676302      -3.90193791       2.54536729
H       -2.38136302      -2.29352791       1.98884729
