18
Properties=species:S:1:pos:R:3 pbc="F F F"
C       -1.28258823      -2.33482888      -1.50269227
C       -0.95358823      -2.51182888      -0.03569227
O       -1.00058823      -3.61682888       0.50230773
N       -0.60558823      -1.42582888       0.63430773
H       -0.40858823      -1.52382888       1.61830773
H       -0.50158823      -0.52182888       0.19330773
H       -0.50758823      -1.72382888      -1.96269227
H       -2.22858823      -1.80182888      -1.56669227
H       -1.36258123      -3.29833888      -2.02732827
C        0.15041177       3.01317112      -0.98269227
C        0.96741177       2.38517112       0.12630773
O        0.82041177       1.20117112       0.42130773
N        1.82741177       3.16917112       0.76030773
H        0.55141177       2.67717112      -1.93969227
H        0.24541177       4.09917112      -0.93569227
H        2.36141177       2.76417112       1.52130773
H        1.96841177       4.14117112       0.50730773
H       -0.91027523       2.73046112      -0.91183527
