27
Properties=species:S:1:pos:R:3 pbc="F F F"
C       -0.64193179      -2.67032622      -0.43571923
C        0.11306821      -0.59432622      -1.60571923
C        0.41206821      -1.63732622      -0.73771923
C        1.07006821       0.38667378      -1.89371923
C        2.31406821       0.33967378      -1.29071923
C        1.64606821      -1.62932622      -0.08371923
C        2.58606821      -0.66232622      -0.35771923
H       -0.85393179      -0.55332622      -2.08971923
H        0.84106821       1.17767378      -2.59571923
H       -1.02893179      -3.00732622      -1.39771923
H       -1.45893179      -2.18732622       0.09928077
H        3.06006821       1.08967378      -1.51771923
H        1.96906821      -2.41132622       0.56628077
H        3.55406821      -0.69332622       0.12428077
H       -0.28288179      -3.55110722       0.11683077
C       -1.73493179       1.21567378       1.15228077
C       -1.71793179       2.59367378       0.46628077
C       -0.24593179       0.86667378       1.53228077
O       -2.65093179       1.19567378       2.28228077
H       -2.06293179       0.47267378       0.42528077
H       -1.00193179       2.54267378      -0.35471923
H        0.08406821       1.48567378       2.36828077
H       -0.18593179      -0.18032622       1.82828077
H        0.41606821       1.04167378       0.68828077
H       -2.13193179       0.95667378       3.07828077
H       -1.43355179       3.36503378       1.19712077
H       -2.69549179       2.81864978       0.01488077
