26
Properties=species:S:1:pos:R:3 pbc="F F F"
C        1.72113540       1.91123213      -2.05891323
C        3.04913540       1.25323213      -1.68391323
C        1.79513540       2.99823213      -3.12391323
H        1.03413540       1.13423213      -2.39691323
H        1.29713540       2.35023213      -1.15391323
H        3.78013540       2.02923213      -1.46791323
H        2.22813540       2.60323213      -4.03991323
H        3.42996540       0.63599613      -2.51095323
H        2.95012540       0.67793613      -0.75158323
H        0.76782540       3.33297513      -3.33024323
H        2.41644540       3.84350513      -2.79303323
C       -1.95986460      -3.26376787       1.05808677
C       -1.00186460       0.25323213      -0.00191323
C       -0.37986460       0.74223213       1.11808677
C       -1.51886460      -1.03276787      -0.01091323
C       -1.40386460      -1.85976787       1.09008677
C       -0.24986460      -0.06976787       2.22808677
C       -0.74786460      -1.37076787       2.21308677
H       -1.09586460       0.87523213      -0.88191323
H        0.03813540       1.73823213       1.12308677
H       -1.99386460      -1.39776787      -0.90791323
H        0.30013540       0.27823213       3.08808677
H       -1.16786460      -3.96176787       1.33108677
H       -2.26186460      -3.49276787       0.03608677
H       -0.59386460      -2.00276787       3.07508677
H       -2.82784460      -3.41681397       1.71625677
