16
Properties=species:S:1:pos:R:3 pbc="F F F"
C       -0.65375479       0.01903656       1.88508407
C        0.14224521      -0.33096344       3.14708407
H       -0.23075479      -0.49196344       1.02208407
H       -1.68675479      -0.30896344       2.00108407
H       -0.63575479       1.09603656       1.72608407
H        0.18424521      -1.41296344       3.23408407
H        1.17222721       0.05420406       3.11911407
H       -0.38133279       0.05237036       4.03529407
C        0.06624521       0.06903656      -1.77591593
C        0.45224521       0.24603656      -3.25691593
H        0.59224521       0.77903656      -1.14691593
H       -1.00175479       0.24503656      -1.65891593
H        0.29924521      -0.94596344      -1.44891593
H        0.28224521       1.28403656      -3.53691593
H        1.50698021      -0.00756084      -3.43918893
H       -0.18401779      -0.38079534      -3.89898293
