27
Properties=species:S:1:pos:R:3 pbc="F F F"
C       -2.00220204      -2.30574633      -1.82267251
C       -0.03320204      -0.13674633       0.54832749
C       -1.27420204      -0.53074633      -0.01667251
C       -0.99820204      -1.56474633      -0.97867251
C        0.35579796      -1.74574633      -0.96067251
C        0.06079796       0.84425367       1.52232749
C       -1.10820204       1.45525367       1.93632749
C       -2.44320204       0.09825367       0.42832749
C       -2.34720204       1.08825367       1.40132749
N        0.93479796      -0.89374633      -0.05267251
H        1.93679796      -0.86074633       0.13232749
H        1.01679796       1.12425367       1.94032749
H        0.89279796      -2.45774633      -1.57867251
H       -1.06420204       2.22925367       2.69232749
H       -3.39620204      -0.16774633       0.00132749
H       -2.76120204      -2.73574633      -1.16867251
H       -1.48020204      -3.13574633      -2.29967251
H       -3.24320204       1.58625367       1.74832749
H       -2.49930404      -1.69889533      -2.59378951
C        3.27779796       1.40625367      -0.34767251
C        4.37879796       2.06725367      -1.17767251
H        3.72779796       0.63025367       0.24532749
H        2.84679796       2.12525367       0.35032749
H        2.49379796       1.01925367      -0.99667251
H        5.27479796       2.13625367      -0.56267251
H        4.59283796       1.47755967      -2.08124751
H        4.09087796       3.09514367      -1.44328151
