30
Properties=species:S:1:pos:R:3 pbc="F F F"
C        2.58868244      -2.23770659       0.47778313
C       -0.74831756      -0.47170659       0.75578313
C        0.14068244      -1.31570659       0.03078313
C        1.35368244      -1.43070659       0.80578313
C        1.15568244      -0.67570659       1.92278313
C       -2.02031756      -0.14370659       0.29178313
C       -2.42131756      -0.67070659      -0.92621687
C       -0.29131756      -1.83770659      -1.19921687
C       -1.57031756      -1.50970659      -1.66821687
N       -0.09631756      -0.10470659       1.90278313
H       -0.45531756       0.50429341       2.62978313
H       -2.67331756       0.50029341       0.86478313
H        1.88168244      -0.53870659       2.71178313
H       -3.40431756      -0.43370659      -1.31221687
H        0.33068244      -2.50670659      -1.76121687
H        2.27768244      -3.23270659       0.15678313
H        3.14968244      -2.37970659       1.39978313
H       -1.91231756      -1.91270659      -2.61221687
H        3.26581244      -1.79939559      -0.27013387
C        0.30468244       2.58929341      -0.62521687
C        0.87868244       2.89629341      -2.01521687
C        0.20968244       3.80529341       0.30878313
H       -0.68931756       2.15529341      -0.74521687
H        0.94068244       1.83629341      -0.15421687
H        0.26368244       3.64229341      -2.50321687
H        1.14668244       4.35429341       0.33078313
H        0.90208244       1.98733341      -2.63427887
H        1.90488244       3.27822341      -1.91013287
H       -0.59085756       4.47685341      -0.03492387
H        0.00263244       3.46866341       1.33533513
