16
Properties=species:S:1:pos:R:3 pbc="F F F"
C       -1.14730013      -1.25705967      -0.96143908
C       -1.08230013      -1.29605967      -2.47343908
H       -1.92430013      -1.93205967      -0.59543908
H       -0.18630013      -1.56005967      -0.53943908
H       -1.37330013      -0.24305967      -0.62843908
H       -0.31330013      -0.60405967      -2.81143908
H       -2.04360313      -0.96528057      -2.89353608
H       -0.80127013      -2.30272367      -2.81643988
C        0.66069987       0.79194033       1.35156092
C        1.56669987       1.75794033       2.08656092
H        0.17569987       0.12294033       2.06356092
H       -0.09730013       1.34694033       0.79556092
H        1.24769987       0.19294033       0.65656092
H        2.06769987       2.36494033       1.33656092
H        2.31141987       1.19694433       2.67023792
H        0.96307487       2.42112833       2.72359992
