20
Properties=species:S:1:pos:R:3 pbc="F F F"
C        0.67976070       0.57511656      -2.56772345
C        1.39576070      -0.74388344      -2.78472345
H       -0.39523930       0.42111656      -2.60372345
H        0.91876070       0.96411656      -1.57872345
H        0.99776070       1.30211656      -3.31272345
H        0.99676070      -1.45888344      -2.06472345
H        1.22717370      -1.12697044      -3.80198545
H        2.46963170      -0.61407444      -2.58484745
C       -2.12223930       1.39011656       0.73027655
C       -0.96223930       0.43711656       0.89027655
C       -0.89023930      -0.89888344       0.64427655
C        1.08676070      -0.23788344       1.35527655
N        0.29076070       0.82711656       1.33327655
N        0.39576070      -1.29588344       0.94727655
H       -2.32423930       1.89311656       1.67727655
H       -3.00223930       0.79911656       0.46927655
H       -1.69723930      -1.52588344       0.28427655
H        2.12876070      -0.24288344       1.65727655
H        0.76376070      -2.23888344       0.87827655
H       -1.94271830       2.12550256      -0.06783345
