17
Properties=species:S:1:pos:R:3 pbc="F F F"
C       -1.34458720       1.10040471      -1.40957130
C       -1.20158720       1.99940471      -2.62857130
H       -0.59158720       0.31940471      -1.45257130
H       -1.22058720       1.68840471      -0.50157130
H       -2.33658720       0.64840471      -1.40557130
H       -1.99358720       2.73940471      -2.59357130
H       -1.28466290       1.39710471      -3.54526930
H       -0.25851920       2.56409471      -2.58668930
C        0.75041280      -0.67359529       0.87642870
C       -0.37858720      -1.22759529       1.73642870
O        2.01041280      -1.08259529       1.37342870
H        0.63741280      -1.00659529      -0.15257130
H        0.68141280       0.40540471       0.89442870
H       -1.31158720      -0.81159529       1.35542870
H        2.35641280      -1.79159529       0.79042870
H       -0.22331820      -0.93590529       2.78562170
H       -0.45528920      -2.31590529       1.59604870
