30
Properties=species:S:1:pos:R:3 pbc="F F F"
C        3.21872374       1.96331348       2.70340877
C       -0.18427626       2.45031348       0.09440877
C        1.07872374       2.29131348      -0.43559123
C       -0.35127626       2.47631348       1.46440877
C        2.17072374       2.13031348       0.41640877
C        0.75072374       2.30731348       2.32340877
C        2.01872374       2.13031348       1.80140877
H       -1.03427626       2.57631348      -0.56259123
H        1.21672374       2.28931348      -1.50759123
H       -1.34027626       2.61531348       1.88140877
H        3.15172374       1.99031348      -0.01359123
H        0.59972374       2.32131348       3.39440877
H        3.67672374       1.00131348       2.47140877
H        2.90572374       1.94231348       3.74840877
H        3.96388374       2.76006348       2.56225877
C       -2.98027626      -3.99768652      -1.41559123
C        0.00872374      -0.91268652      -1.07959123
C       -0.41727626      -1.33568652      -2.33659123
C       -0.52927626      -1.48968652       0.07440877
C       -1.37827626      -2.34668652      -2.43859123
C       -1.50227626      -2.48668652      -0.03659123
C       -1.92927626      -2.92268652      -1.29359123
H        0.77872374      -0.16268652      -0.99859123
H        0.00372374      -0.89468652      -3.22959123
H       -0.19827626      -1.15668652       1.04940877
H       -1.70227626      -2.68568652      -3.40859123
H       -1.92727626      -2.91868652       0.86040877
H       -3.52527626      -3.84068652      -2.34859123
H       -3.69327626      -3.88668652      -0.60059123
H       -2.56778626      -5.01741152      -1.41200123
