23
Properties=species:S:1:pos:R:3 pbc="F F F"
C        1.07626991      -3.23453863      -1.08533862
C        1.35826991      -3.89953863       0.26366138
H        1.69326991      -3.68653863      -1.85833862
H        0.02926991      -3.37753863      -1.34433862
H        1.30526991      -2.17353863      -1.02233862
H        1.19026991      -4.96853863       0.13866138
H        2.39024991      -3.75221463       0.61481138
H        0.63803991      -3.53514663       1.01098138
C        1.85026991       1.85046137      -0.48433862
C       -0.13473009       0.33446137      -0.73333862
C        0.45826991       1.42946137      -0.11733862
C       -1.40073009      -0.07053863      -0.37333862
C       -2.08773009       0.64146137       0.61166138
C       -0.22973009       2.13646137       0.87566138
C       -1.51573009       1.74646137       1.23966138
H        0.39226991      -0.19653863      -1.51033862
H       -1.85173009      -0.93153863      -0.84433862
H        1.98626991       2.89846137      -0.24433862
H        1.94626991       1.73646137      -1.55233862
H       -3.08073009       0.32346137       0.90166138
H        0.23326991       2.98646137       1.35866138
H       -2.05873009       2.28546137       2.00266138
H        2.64083991       1.26023137       0.00211138
