16
Properties=species:S:1:pos:R:3 pbc="F F F"
C       -0.03556738      -0.55680210       1.64177225
C       -0.53456738      -1.65380210       2.56677225
H        0.75543262       0.01219790       2.12177225
H        0.37443262      -1.02680210       0.74777225
H       -0.84356738       0.10219790       1.33877225
H       -1.26556738      -2.26380210       2.03477225
H       -0.99592738      -1.20751310       3.46006725
H        0.30154262      -2.30018010       2.87192625
C        0.04843262       1.00419790      -1.38822775
C        0.52143262       1.20819790      -2.81822775
H        0.88643262       0.68519790      -0.76922775
H       -0.33356738       1.94519790      -1.00222775
H       -0.74556738       0.25719790      -1.35522775
H       -0.34056738       1.53119790      -3.40022775
H        0.91185262       0.25798890      -3.21151675
H        1.29828262       1.98577290      -2.86154675
