17
Properties=species:S:1:pos:R:3 pbc="F F F"
C        0.86932456       2.42553419      -0.01139218
C        2.14632456       3.23453419       0.29560782
H        1.02432456       1.38053419       0.25460782
H        0.04232456       2.82153419       0.57760782
H        0.59932456       2.50253419      -1.06539218
H        2.00832456       4.24553419      -0.09039218
H        3.01039456       2.77851919      -0.20980218
H        2.33751456       3.31822319       1.37562782
C       -1.17667544      -0.66546581      -0.26739218
C       -2.06167544      -1.42246581      -1.24239218
S        0.07132456      -1.69846581       0.54460782
H       -0.67867544       0.14353419      -0.80539218
H       -1.80567544      -0.22746581       0.50660782
H       -2.54067544      -2.24746581      -0.71139218
H        0.73132456      -0.71346581       1.16960782
H       -1.49127544      -1.79269681      -2.10702218
H       -2.85210544      -0.75308981      -1.61274218
