16
Properties=species:S:1:pos:R:3 pbc="F F F"
C        0.71767872      -2.33577108      -0.92903158
C       -0.77632128      -2.09777108      -0.75403158
O       -1.61632128      -2.93977108      -1.10903158
N       -1.12732128      -0.95577108      -0.21003158
H       -2.10132128      -0.77577108      -0.00203158
H       -0.40832128      -0.24477108      -0.04403158
H        0.93567872      -3.32977108      -0.54003158
H        1.28967872      -1.61377108      -0.34603158
H        1.01397872      -2.27335108      -1.98653358
C        1.10667872       3.38622892       0.36596842
C        0.70767872       1.99322892       0.77096842
O        0.96467872       1.03322892       0.00996842
O        0.04267872       1.84822892       1.82296842
H        1.45367872       3.40522892      -0.66703158
H        1.94767872       3.67422892       0.99896842
H        0.27897872       4.09353892       0.52290842
