27
Properties=species:S:1:pos:R:3 pbc="F F F"
C       -1.86858825      -1.27490081      -2.23233215
C        0.55041175      -1.45390081       0.68866785
C       -0.03558825      -1.66390081      -0.55833215
C       -0.05458825      -0.60190081       1.60966785
C       -1.23458825      -1.04190081      -0.89333215
C       -1.23858825       0.04209919       1.27466785
C       -1.82458825      -0.18490081       0.02966785
O        0.51941175      -0.38890081       2.83066785
H        1.47941175      -1.94990081       0.93566785
H        0.45441175      -2.31490081      -1.27033215
H        1.30341175      -0.93290081       2.96066785
H       -1.70258825       0.70609919       1.98866785
H       -1.07058825      -1.29990081      -2.96933215
H       -2.51258825      -0.43190081      -2.48333215
H       -2.74358825       0.32509919      -0.22033215
H       -2.44263425      -2.21060081      -2.30265215
C        1.99341175       1.69709919      -0.94133215
C        0.90641175       1.58909919      -2.01033215
C        1.71941175       2.72209919       0.16466785
H        2.12141175       0.71409919      -0.48633215
H        2.93341175       1.96009919      -1.43133215
H       -0.02158825       1.24909919      -1.54833215
H        1.47541175       3.69009919      -0.27033215
H        0.87641175       2.39409919       0.77466785
H        1.23436175       0.86671919      -2.77231015
H        0.71036175       2.57944219      -2.44712215
H        2.61179175       2.86556819       0.79162785
