23
Properties=species:S:1:pos:R:3 pbc="F F F"
C       -2.25290734      -2.55035328       0.14246558
C       -3.55890734      -3.33235328       0.08446558
H       -2.20290734      -1.81835328      -0.66253442
H       -2.19990734      -2.01835328       1.09146558
H       -1.40690734      -3.23035328       0.07646558
H       -4.35090734      -2.59235328       0.11946558
H       -3.64198304      -3.93465328      -0.83223242
H       -3.66230004      -3.98235328       0.96583358
C        2.63309266      -0.09835328      -1.47953442
C       -0.19290734       0.37564672       1.04046558
C       -0.32190734       1.76464672       1.05746558
C        0.75809266      -0.22835328       0.21346558
C        1.59109266       0.54764672      -0.59653442
C        0.49909266       2.54664672       0.24846558
C        1.45409266       1.93764672      -0.57053442
H       -0.82790734      -0.23135328       1.67046558
H       -1.05190734       2.23564672       1.70146558
H        0.82809266      -1.30135328       0.17046558
H        0.40309266       3.62464672       0.25846558
H        2.95309266      -1.03835328      -1.02853442
H        3.51209266       0.54664672      -1.50753442
H        2.09509266       2.55564672      -1.18353442
H        2.29859666      -0.28776328      -2.51018342
