26
Properties=species:S:1:pos:R:3 pbc="F F F"
C       -0.30450082       0.64599588      -1.45594972
C       -1.07450082       0.22499588      -2.71194972
C       -0.68550082      -0.14900412      -0.23694972
C       -1.90050082       0.07899588       0.40205028
C        0.14749918      -1.15300412       0.22805028
C       -2.25750082      -0.68300412       1.49505028
C       -0.21550082      -1.92000412       1.32405028
C       -1.41550082      -1.68200412       1.95205028
H        0.75349918       0.53399588      -1.66694972
H       -0.49550082       1.69899588      -1.24194972
H       -2.13850082       0.30799588      -2.48594972
H       -2.56650082       0.85199588       0.04205028
H        1.08249918      -1.35100412      -0.27294972
H       -3.20650082      -0.51500412       1.98605028
H        0.43749918      -2.70700412       1.67705028
H       -1.70450082      -2.28300412       2.80505028
H       -0.83113082      -0.81231712      -2.98535972
H       -0.87707082       0.92324588      -3.53866972
C        3.33349918       1.54399588      -0.83094972
C        3.47449918       2.38799588       0.41205028
H        2.55549918       0.81099588      -0.64494972
H        3.02249918       2.20099588      -1.63894972
H        4.22549918       0.98799588      -1.09794972
H        3.21849918       1.77399588       1.27805028
H        2.73749918       3.18699588       0.34605028
H        4.48708618       2.79216588       0.55804028
