16
Properties=species:S:1:pos:R:3 pbc="F F F"
C        0.17374674      -1.40114201      -0.98320727
C        0.86774674      -2.72314201      -1.29620727
H        0.87274674      -0.73414201      -0.48320727
H       -0.18425326      -0.93014201      -1.89520727
H       -0.68525326      -1.57714201      -0.33620727
H        1.76774674      -2.49914201      -1.86920727
H        1.16591274      -3.22320201      -0.36291187
H        0.21795574      -3.34819201      -1.92635227
C       -0.79225326       1.39185799       1.40079273
C       -0.25425326       2.72885799       0.87579273
H       -1.42725326       0.91985799       0.64979273
H        0.03274674       0.72085799       1.63779273
H       -1.36025326       1.53285799       2.32079273
H        0.31774674       3.18185799       1.68479273
H       -1.06918426       3.41500799       0.60176373
H        0.41107574       2.58403799       0.01186923
