23
Properties=species:S:1:pos:R:3 pbc="F F F"
C       -1.64921637      -1.38596861       1.45487593
C       -3.12221637      -1.52196861       1.08387593
H       -1.09321637      -2.24596861       1.10287593
H       -1.24421637      -0.49096861       0.98587593
H       -1.52021637      -1.27396861       2.53187593
H       -3.64021637      -0.66396861       1.50487593
H       -3.56437637      -2.45064961       1.47380593
H       -3.25479637      -1.49530761      -0.00778407
C        1.16378363      -1.27796861      -2.09912407
C       -0.28521637       1.75403139      -0.29212407
C       -0.03421637       0.78303139      -1.27012407
C        0.45878363       1.78803139       0.86887593
C        0.95778363      -0.18596861      -1.07412407
C        1.44878363       0.82903139       1.06587593
C        1.69478363      -0.15696861       0.11287593
H       -1.06021637       2.49203139      -0.44912407
H       -0.62721637       0.77403139      -2.17412407
H        0.27278363       2.54303139       1.61787593
H        2.02878363       0.84603139       1.97787593
H        2.19778363      -1.62496861      -2.06612407
H        1.01378363      -0.85596861      -3.08012407
H        2.46578363      -0.87796861       0.29587593
H        0.48230363      -2.12605061      -1.93683207
