26
Properties=species:S:1:pos:R:3 pbc="F F F"
C       -1.34370155      -2.25931810      -3.73835231
C       -0.44070155      -0.22831810      -0.70735231
C       -1.20670155      -1.25331810      -1.31735231
C       -0.80970155      -1.32431810      -2.69635231
C        0.14829845      -0.37331810      -2.86435231
C       -0.57670155       0.10768190       0.63064769
C       -1.49670155      -0.59731810       1.38164769
C       -2.26970155      -1.61731810       0.80964769
C       -2.13470155      -1.95231810      -0.53535231
N        0.37529845       0.28668190      -1.67935231
H        0.02229845       0.89068190       1.06764769
H       -1.60470155      -0.36331810       2.43164769
H        1.06429845       1.01968190      -1.54835231
H       -2.98270155      -2.15131810       1.42564769
H        0.64529845      -0.15931810      -3.80035231
H       -2.73370155      -2.73431810      -0.97735231
H       -1.10170155      -1.85631810      -4.72335231
H       -2.43170155      -2.28131810      -3.65035231
H       -0.96080755      -3.28780810      -3.66350231
C        1.11329845       3.04868190       2.51064769
C        2.20829845       1.99668190       2.46664769
O        2.58229845       1.47568190       3.53764769
O        2.67929845       1.68168190       1.35164769
H        0.23629845       2.62068190       2.99964769
H        0.82729845       3.30568190       1.49464769
H        1.42300345       3.95408190       3.05316769
