17
Properties=species:S:1:pos:R:3 pbc="F F F"
C       -1.22872592       2.27781872      -0.64818766
C       -1.73972592       3.58381872      -0.06518766
H       -0.14972592       2.21381872      -0.50118766
H       -1.44372592       2.22381872      -1.71718766
H       -1.68172592       1.43081872      -0.13118766
H       -1.57872592       3.54781872       1.00981234
H       -2.80293592       3.76160872      -0.28422966
H       -1.15128592       4.39771872      -0.51384866
C        0.77627408      -0.56218128      -1.04618766
C        1.64627408      -2.39718128       0.81281234
S        0.21527408      -1.35618128       0.46681234
H       -0.05072592      -0.02418128      -1.50618766
H        1.13727408      -1.31118128      -1.74818766
H        1.58527408       0.13281872      -0.81918766
H        2.50427408      -1.77218128       1.06281234
H        1.88027408      -2.98618128      -0.07318766
H        1.40965408      -3.06316028       1.65571434
