27
Properties=species:S:1:pos:R:3 pbc="F F F"
C       -1.57253928       0.15331954       2.65556320
C       -1.18253928       0.17031954       4.13156320
C       -2.89853928      -0.47468046       2.20056320
H       -1.53753928       1.16631954       2.25756320
H       -0.81253928      -0.40168046       2.13256320
H       -1.25453928      -0.84368046       4.52356320
H       -3.66353928      -0.25768046       2.94456320
H       -1.86998928       0.80968954       4.70481320
H       -0.13564928       0.48949954       4.24180320
H       -3.27217928      -0.12231046       1.22782120
H       -2.76731928      -1.56479046       2.13385220
C        0.65646072      -1.89768046      -3.43543680
C        0.79546072      -0.44468046       0.05456320
C        0.76146072      -1.36068046      -0.99743680
C        0.80846072       0.92231954      -0.19943680
C        0.76946072      -0.90168046      -2.30543680
C        0.79046072       1.40231954      -1.50343680
C        0.80046072       0.48231954      -2.54343680
O        0.79346072       1.82231954       0.84356320
H        0.84646072      -0.81168046       1.06156320
H        0.74446072      -2.42268046      -0.78443680
H        0.83546072       1.37931954       1.70856320
H        0.79746072       2.46531954      -1.69743680
H        0.99546072      -2.87768046      -3.09443680
H        1.30346072      -1.58568046      -4.25643680
H        0.81246072       0.85531954      -3.55943680
H       -0.38192928      -1.98018046      -3.78891480
