20
Properties=species:S:1:pos:R:3 pbc="F F F"
C        0.59879624      -0.20026039       2.57976290
C       -0.39320376       0.50373961       1.68476290
O       -1.14020376      -0.13226039       0.93876290
N       -0.43120376       1.82673961       1.76376290
H        0.04879624      -0.89526039       3.21676290
H        1.08679624       0.52973961       3.22676290
H       -1.11520376       2.33473961       1.22676290
H        0.21579624       2.32173961       2.35976290
H        1.36237624      -0.75250039       2.01232290
C        0.58879624      -0.38926039      -1.86723710
C        1.59279624      -1.22726039      -2.64023710
C       -0.80120376      -0.45226039      -2.47223710
H        0.56379624      -0.73926039      -0.83923710
H        0.91679624       0.65273961      -1.87523710
H        1.42079624      -1.10726039      -3.71023710
H        1.47179624      -2.27926039      -2.37823710
H       -0.72920376      -0.30726039      -3.55523710
H       -1.22520376      -1.44526039      -2.29123710
H        2.61530624      -0.89194039      -2.41213310
H       -1.44140376       0.32897961      -2.03657410
