30
Properties=species:S:1:pos:R:3 pbc="F F F"
C       -1.93824270      -3.10872905      -2.15372584
C       -2.82624270      -1.88572905      -2.04172584
C       -2.87624270      -4.21172905      -1.72972584
H       -1.09824270      -3.04772905      -1.46372584
H       -1.58224270      -3.25172905      -3.17572584
H       -2.21924270      -0.98872905      -1.91272584
H       -3.47124270      -1.79872905      -2.91772584
H       -2.33524270      -5.12672905      -1.48372584
H       -3.60424270      -4.40472905      -2.51972584
H       -3.43205670      -2.10541105      -1.15024984
H       -3.37767070      -3.76954805      -0.85620084
C        0.72475730      -0.97772905      -0.72472584
C        2.13175730      -1.38372905      -1.17772584
C        0.70375730       0.26327095       0.14027416
C        0.91975730       1.52427095      -0.42072584
C        0.51875730       0.16427095       1.52427416
C        0.95875730       2.67027095       0.38127416
C        0.55675730       1.30327095       2.33627416
C        0.78275730       2.55427095       1.76227416
O        0.85375730       3.66527095       2.54127416
H        0.11075730      -0.79572905      -1.60572584
H        0.28275730      -1.80172905      -0.16472584
H        2.52675730      -0.59472905      -1.78772584
H        1.06375730       1.61327095      -1.48672584
H        0.34875730      -0.80572905       1.97427416
H        1.12175730       3.63627095      -0.07272584
H        0.42175730       1.22327095       3.40427416
H        0.91675730       4.47027095       2.02827416
H        2.09699730      -2.30498605      -1.77778984
H        2.77432730      -1.52628005      -0.29636984
