26
Properties=species:S:1:pos:R:3 pbc="F F F"
C        0.36841870      -0.20922412      -0.51721643
C        0.81441870      -1.60222412      -0.17421643
C       -1.50758130      -1.72622412      -0.61721643
C       -1.48658130       2.07977588      -0.52221643
C       -1.98358130       0.64977588      -0.62421643
O       -3.19158130       0.41277588      -0.70821643
N       -1.08458130      -0.33522412      -0.59421643
H        0.68541870       0.49077588       0.25278357
H        0.76441870       0.07977588      -1.49221643
H        0.78541870      -1.73722412       0.90778357
H        1.81941870      -1.80022412      -0.54521643
H       -2.17458130      -1.90922412      -1.46221643
H       -0.51958130       2.14777588      -1.02121643
H        0.06623870      -2.25843412      -0.64283543
H       -0.57140130      -2.28562412      -0.76085643
H       -2.00633130      -2.02474412       0.31666557
H       -2.20650130       2.74449588      -1.02207843
H       -1.36668130       2.36553588       0.53322857
C        3.13641870       0.60077588       1.70278357
C        4.61841870       0.19577588       1.88878357
H        2.49341870      -0.26422412       1.86778357
H        2.87141870       1.36577588       2.43078357
H        2.96841870       1.00777588       0.70778357
H        4.77141870      -0.01122412       2.94878357
H        5.25941870       1.03477588       1.61778357
H        4.90283870      -0.70128412       1.31923257
