23
Properties=species:S:1:pos:R:3 pbc="F F F"
C       -3.22066536       1.85803594      -0.44251726
C       -4.52666536       1.07603594      -0.50051726
H       -3.17066536       2.59003594      -1.24751726
H       -3.16766536       2.39003594       0.50648274
H       -2.37466536       1.17803594      -0.50851726
H       -5.31866536       1.81603594      -0.46551726
H       -4.60974106       0.47373594      -1.41721526
H       -4.63005806       0.42603594       0.38085074
C        2.36133464      -2.40796406      -0.88151726
C       -0.24866536      -0.22896406       0.81548274
C        0.43033464       0.97603594       0.94548274
C        0.38033464      -1.32296406       0.22348274
C        1.69233464      -1.22096406      -0.24351726
C        1.73933464       1.09203594       0.47648274
C        2.36433464      -0.00196406      -0.12351726
H       -1.26966536      -0.29696406       1.14848274
H       -0.06066536       1.81803594       1.40948274
H       -0.16466536      -2.24996406       0.11348274
H        2.26833464       2.03003594       0.56948274
H        2.96833464      -2.06696406      -1.72151726
H        1.58833464      -3.05996406      -1.28851726
H        3.37333464       0.10003594      -0.49651726
H        2.98594164      -2.99528406      -0.19236926
