23
Properties=species:S:1:pos:R:3 pbc="F F F"
C        1.46559719       1.74692241       2.91758328
C        2.14459719       1.35492241       4.23258328
H        1.94359719       1.25392241       2.07758328
H        0.40759719       1.48992241       2.93158328
H        1.54959719       2.82692241       2.79858328
H        1.52859719       1.69292241       5.06658328
H        3.13788719       1.82486441       4.28293428
H        2.29491719       0.26672441       4.28940228
C        0.35859719       0.88092241      -2.95841672
C       -0.26740281      -0.65307759       0.48058328
C        0.26459719       0.12792241      -0.57141672
C       -1.29740281      -1.55507759       0.21258328
C       -0.23340281       0.02392241      -1.87041672
C       -1.79740281      -1.67507759      -1.10341672
C       -1.26740281      -0.88207759      -2.13641672
H        0.12859719      -0.56507759       1.48258328
H        1.05859719       0.82892241      -0.35541672
H       -1.72040281      -2.15007759       1.01158328
H       -2.63140281      -2.33107759      -1.29541672
H        0.79159719       1.77492241      -2.50641672
H       -0.43940281       1.20792241      -3.62641672
H       -1.68240281      -0.95907759      -3.13141672
H        1.13503719       0.35346041      -3.53193272
