16
Properties=species:S:1:pos:R:3 pbc="F F F"
C        1.67186911       0.32938423       1.22214169
C        2.57986911       1.34638423       0.56914169
H        2.22386911      -0.59561577       1.38714169
H        0.82586911       0.11638423       0.57714169
H        1.31486911       0.70138423       2.18214169
H        2.89286911       0.98638423      -0.41185831
H        3.45086911       1.39238423       1.21014169
H        2.13573911       2.34836423       0.47545169
C       -1.45013089      -0.76561577      -0.55085831
C       -2.80613089      -0.90761577      -1.24685831
H       -0.75613089      -0.21361577      -1.18485831
H       -1.03613089      -1.74961577      -0.32485831
H       -1.57913089      -0.21561577       0.38214169
H       -3.16813089       0.08838423      -1.49485831
H       -2.71769089      -1.51811277      -2.15761231
H       -3.53296889      -1.37093877      -0.56345831
