26
Properties=species:S:1:pos:R:3 pbc="F F F"
C       -1.37635284      -2.10144681      -0.40155664
C       -1.51935284       0.32555319       0.24544336
C       -1.04635284      -0.95244681       0.51444336
C       -1.17635284       1.38655319       1.07644336
C       -0.23635284      -1.14944681       1.62844336
C       -0.37535284       1.18155319       2.18344336
C        0.09664716      -0.09044681       2.46744336
H       -2.13335284       0.51755319      -0.62255664
H       -1.54935284       2.37555319       0.86644336
H       -0.75635284      -2.95244681      -0.11355664
H       -1.09435284      -1.83644681      -1.42155664
H        0.14164716      -2.13644681       1.85344336
H       -0.12035284       2.01055319       2.82944336
H        0.71964716      -0.26144681       3.33544336
H       -2.42888284      -2.42063681      -0.38441864
C        1.40064716       0.81255319      -1.80255664
C        2.88064716       0.50455319      -1.88655664
C        0.79164716       0.17355319      -3.01255664
H        1.24964716       1.88755319      -1.86055664
H        0.97764716       0.42355319      -0.87855664
H        3.46364716       1.33455319      -1.48755664
H        3.09264716      -0.41444681      -1.34055664
H       -0.16135284       0.63555319      -3.27855664
H        0.64564716      -0.89044681      -2.81855664
H        3.06297716       0.35585319      -2.96110064
H        1.56956716       0.29284319      -3.78107324
