25
Properties=species:S:1:pos:R:3 pbc="F F F"
C        2.07728335      -0.75080420      -0.76621559
C        2.32928335      -1.68280420       0.42378441
N        0.83128335      -1.17580420      -1.48821559
H        1.98028335       0.27819580      -0.39721559
H        2.93828335      -0.78580420      -1.44321559
H        2.37328335      -2.72280420       0.09178441
H        1.49028335      -1.58480420       1.11378441
H        0.02828335      -1.18180420      -0.87921559
H        0.65128335      -0.58080420      -2.29321559
H        0.92728335      -2.13080420      -1.84121559
H        3.24506835      -1.42950220       0.97801441
C       -1.04371665       0.81919580       0.67078441
C       -1.88771665       1.52419580       1.78378441
C       -1.73471665      -0.34780420       0.04678441
C       -0.66571665       1.83619580      -0.41221559
H       -0.23971665       0.17319580       0.96878441
H       -2.38071665       2.36919580       1.31078441
H       -2.78271665      -0.10580420      -0.14121559
H       -1.42471665      -0.49680420      -0.97821559
H       -1.61471665      -1.28080420       0.60378441
H       -0.13371665       2.67419580       0.04078441
H       -0.01871665       1.39919580      -1.16721559
H       -1.56671665       2.21919580      -0.89521559
H       -1.27358165       1.92658580       2.60288141
H       -2.72453965       0.93856280       2.19214841
