25
Properties=species:S:1:pos:R:3 pbc="F F F"
C       -1.78762650      -2.26378375      -1.68276566
C       -2.65262650      -3.31878375      -2.34176566
O       -1.01862650      -1.63178375      -2.66476566
H       -2.42162650      -1.53078375      -1.18176566
H       -1.12862650      -2.72878375      -0.94976566
H       -3.25662650      -3.79678375      -1.56976566
H       -0.23862650      -2.18878375      -2.82276566
H       -2.01946450      -4.08084375      -2.81965266
H       -3.33217650      -2.84382375      -3.06469166
C        1.87837350      -1.61878375       0.31823434
C        0.15337350       0.19221625       0.04723434
C        1.30837350      -0.26178375       0.67623434
C       -0.38662650       1.43221625       0.34423434
C        0.25037350       2.26221625       1.25523434
C        1.94337350       0.58021625       1.59523434
C        1.41137350       1.83421625       1.89623434
O       -0.28562650       3.48621625       1.49023434
H       -0.35062650      -0.43778375      -0.65676566
H       -1.33562650       1.66221625      -0.09276566
H        1.07537350      -2.35378375       0.36323434
H        2.63237350      -1.90178375       1.05323434
H        2.82737350       0.24121625       2.11423434
H       -1.19862650       3.54721625       1.20923434
H        1.88137350       2.47421625       2.62723434
H        2.32496150      -1.64865375      -0.68658566
