23
Properties=species:S:1:pos:R:3 pbc="F F F"
C       -1.86776069      -1.60029825       2.40886880
C       -0.45676069      -1.96729825       2.00386880
O        0.14823931      -1.23529825       1.18986880
O        0.03423931      -3.01729825       2.47086880
H       -2.22576069      -0.77829825       1.78486880
H       -1.85376069      -1.25729825       3.44486880
H       -2.55209069      -2.45714825       2.32225350
C       -0.49776069       1.66470175      -0.11513120
C       -1.91776069       2.02870175      -0.49513120
C        1.13223931       1.05370175      -1.85713120
N        0.44823931       1.96870175      -1.18913120
N        0.96023931      -0.22929825      -1.59613120
N        1.98123931       1.42970175      -2.79113120
H       -0.21776069       2.23370175       0.77386880
H       -0.50976069       0.62270175       0.14686880
H       -1.94976069       3.07570175      -0.77913120
H       -2.53776069       1.88170175       0.38886880
H        0.62123931       2.93970175      -1.39913120
H        0.45323931      -0.49429825      -0.75913120
H        1.37223931      -0.95629825      -2.16413120
H        2.16023931       2.40670175      -2.95813120
H        2.54423931       0.73370175      -3.25113120
H       -2.31439069       1.45474175      -1.34557420
