24
Properties=species:S:1:pos:R:3 pbc="F F F"
C        0.47131489       2.74964486       0.64368646
C        0.98231489       0.83064486      -0.86531354
N        0.93331489       1.38864486       0.34168646
N        0.58031489       1.47864486      -1.94731354
N        1.43431489      -0.40235514      -0.98431354
H        1.28431489       0.84164486       1.11468646
H        0.26231489       2.42864486      -1.86631354
H        0.62731489       1.04164486      -2.85331354
H        1.80231489      -0.90135514      -0.19031354
H        1.48531489      -0.83335514      -1.89431354
H       -0.21368511       3.11664486      -0.12231354
H        1.34431489       3.40464486       0.67468646
H       -0.05125511       2.77911586       1.61118686
C       -1.04168511      -1.53935514       0.95368646
C       -1.62068511      -2.25635514       2.15568646
C       -1.74268511      -2.25535514      -0.21931354
H        0.03831489      -1.66535514       0.91968646
H       -1.31768511      -0.48435514       0.97168646
H       -1.08468511      -3.18935514       2.33868646
H       -1.57268511      -1.59935514       3.02568646
H       -1.23968511      -3.20635514      -0.41031354
H       -1.74268511      -1.64135514      -1.12131354
H       -2.65369511      -2.47237514       1.84548446
H       -2.76406511      -2.43048514       0.14961746
