19
Properties=species:S:1:pos:R:3 pbc="F F F"
C       -0.28318411      -1.27057030      -0.73657458
C        1.21481589      -1.18657030      -0.67157458
C       -0.59118411      -2.76157030      -0.67657458
H       -0.63118411      -0.85457030      -1.68157458
H       -0.75718411      -0.75157030       0.09442542
H        1.54881589      -0.39757030      -1.33757458
H        1.55481589      -1.02857030       0.35242542
H       -1.55818411      -2.98757030      -1.12757458
H       -0.57318411      -3.09257030       0.36242542
H        1.56364589      -2.15778030      -1.05245458
H        0.23974589      -3.22701030      -1.22695458
C       -0.47518411       1.91242970       0.83742542
C        0.11381589       3.23142970       1.20142542
H        0.28181589       1.13242970       0.90342542
H       -1.25618411       1.66942970       1.56042542
H       -0.92018411       1.90642970      -0.15557458
H       -0.69118411       3.95842970       1.30642542
H        0.78710589       3.55815970       0.39524242
H        0.66062589       3.16423970       2.15351942
