27
Properties=species:S:1:pos:R:3 pbc="F F F"
C        2.00558304      -2.55586198       0.54138938
C       -0.55841696       0.26013802       0.61438938
C        0.62958304      -0.44586198       0.42738938
C       -1.68841696      -0.39886198       1.07338938
C        0.70458304      -1.81086198       0.70738938
C       -1.63441696      -1.76586198       1.35238938
C       -0.43341696      -2.46386198       1.17838938
O       -2.83041696       0.31213802       1.23838938
H       -0.59741696       1.31913802       0.41138938
H        1.51458304       0.07513802       0.08938938
H       -2.69841696       1.24813802       1.08338938
H       -2.51841696      -2.27186198       1.70838938
H        2.48158304      -2.25286198      -0.38661062
H        1.78358304      -3.61986198       0.44638938
H       -0.39141696      -3.51986198       1.40638938
H        2.69261304      -2.42217398       1.38998938
C        1.10458304       2.12213802      -2.06361062
C        1.43158304       2.55813802      -3.49461062
C        1.17658304       3.23613802      -1.02561062
H        0.10158304       1.69413802      -2.03861062
H        1.80158304       1.35013802      -1.75661062
H        2.42858304       2.99113802      -3.50261062
H        0.35658304       3.93813802      -1.15561062
H        1.09658304       2.79713802      -0.03661062
H        2.12258304       3.77013802      -1.09761062
H        1.39948304       1.68784402      -4.16659062
H        0.72767304       3.33007202      -3.83904062
