26
Properties=species:S:1:pos:R:3 pbc="F F F"
C       -0.79624306       3.86175504      -0.25524152
C        0.06775694       4.47075504       0.83375848
H       -1.64524306       3.34475504       0.19275848
H       -1.16724306       4.64575504      -0.91724152
H       -0.22324306       3.14775504      -0.83924152
H        0.85875694       5.03675504       0.34275848
H        0.51643544       3.67031504       1.44036848
H       -0.53407256       5.16511504       1.43845848
C       -1.20424306       0.19075504       0.69375848
C       -2.06724306      -0.54424496       1.70575848
C       -0.17824306      -0.69224496       0.03975848
C        1.01575694      -0.97824496       0.67475848
C       -0.43524306      -1.26924496      -1.20924152
C        1.94175694      -1.83424496       0.07775848
C        0.49775694      -2.08924496      -1.80924152
C        1.67175694      -2.38924496      -1.15724152
H       -1.83724306       0.65075504      -0.06724152
H       -0.67324306       0.98475504       1.20675848
H       -1.40624306      -1.07124496       2.39675848
H        1.22975694      -0.55124496       1.64475848
H       -1.37524306      -1.07624496      -1.70624152
H        2.86275694      -2.08124496       0.58875848
H        0.28875694      -2.53424496      -2.77124152
H        2.36975694      -3.08524496      -1.59624152
H       -2.72960806      -1.25959496       1.19630848
H       -2.65436406       0.18711504       2.28055848
