17
Properties=species:S:1:pos:R:3 pbc="F F F"
C       -0.13839814       1.37193225       0.99612843
C       -1.57039814       0.19993225      -1.02687157
S       -0.79239814       1.78893225      -0.61587157
H        0.60460186       0.58293225       0.90312843
H        0.35060186       2.25193225       1.41512843
H       -0.93239814       1.06493225       1.67512843
H       -0.81339814      -0.58506775      -1.03487157
H       -1.97339814       0.27593225      -2.03287157
H       -2.36811814      -0.07309775      -0.32040257
C        1.58660186      -1.97906775       0.28512843
C        1.81360186      -3.33106775       1.00912843
H        1.55960186      -2.12206775      -0.79587157
H        0.62860186      -1.57106775       0.60612843
H        2.36660186      -1.26006775       0.53712843
H        1.97460186      -3.13906775       2.06912843
H        2.71631186      -3.79138775       0.58107743
H        0.93479186      -3.98786775       0.92968843
