16
Properties=species:S:1:pos:R:3 pbc="F F F"
C       -1.20697732      -0.47453110      -0.61926323
C       -2.75897732      -0.29053110      -0.75126323
H       -0.94297732      -0.50853110       0.42873677
H       -0.91997732      -1.41753110      -1.07626323
H       -0.67297732       0.33946890      -1.10626323
H       -3.24897732      -1.09553110      -0.20226323
H       -3.02497732      -0.43053110      -1.80026323
H       -3.15757732       0.67800890      -0.41503423
C        1.90202268      -0.37153110       0.79173677
C        2.07402268       1.14446890       0.58773677
H        0.97702268      -0.59553110       1.31473677
H        1.90102268      -0.86453110      -0.18026323
H        2.72902268      -0.76553110       1.38273677
H        1.40002268       1.43546890      -0.21626323
H        1.75043268       1.69605890       1.48274377
H        3.08970268       1.43486890       0.28104877
