17
Properties=species:S:1:pos:R:3 pbc="F F F"
C        0.68108533      -0.59730801      -2.21942823
C        0.77308533      -1.18030801      -3.63342823
H        1.53308533       0.05469199      -2.02842823
H       -0.23791467      -0.02230801      -2.10842823
H        0.65808533      -1.37930801      -1.46342823
H       -0.08691467      -1.82830801      -3.80842823
H        1.69391533      -1.77226801      -3.74137823
H        0.76664533      -0.36855801      -4.37573823
C        1.10208533       0.66769199       1.07657177
C       -1.26291467       0.78369199       2.55757177
S       -0.62491467       0.13069199       1.00757177
H        1.51408533       0.48469199       2.06557177
H        1.69008533       0.12769199       0.33557177
H        1.16008533       1.73669199       0.86657177
H       -0.66691467       0.40769199       3.39057177
H       -2.27991467       0.40669199       2.67057177
H       -1.27960467       1.88314199       2.58805177
