27
Properties=species:S:1:pos:R:3 pbc="F F F"
C       -0.61090583      -2.65268204       3.00967674
C       -0.21590583      -3.10668204       4.40367674
H        0.28409417      -2.41268204       2.43567674
H       -1.15990583      -3.44368204       2.50467674
H       -1.23990583      -1.77268204       3.09467674
H        0.43109417      -3.98168204       4.32667674
H        0.34270417      -2.29776204       4.89723674
H       -1.13166583      -3.37581204       4.95043674
C       -1.65390583       0.30231796       0.92267674
C       -1.93490583       1.68931796       1.54567674
C       -0.62390583       0.36331796      -0.20532326
C       -1.01790583       0.70231796      -1.50332326
C        0.75009417       0.17131796       0.05067674
C       -0.05790583       0.86931796      -2.52932326
C        1.71509417       0.34131796      -0.94932326
C        1.32609417       0.71031796      -2.24332326
O        2.31809417       0.98231796      -3.16932326
H       -1.31490583      -0.40068204       1.67267674
H       -2.61190583      -0.03868204       0.52867674
H       -2.37590583       2.33031796       0.77667674
H       -2.07290583       0.83331796      -1.71132326
H        1.06009417      -0.11168204       1.04667674
H       -0.37790583       1.07131796      -3.54532326
H        2.76309417       0.19331796      -0.73032326
H        1.97309417       1.29631796      -4.02232326
H       -0.99639583       2.13418796       1.90802674
H       -2.67289583       1.65161796       2.36050674
