23
Properties=species:S:1:pos:R:3 pbc="F F F"
C       -1.66070648       0.12727327       1.64203787
C       -1.14270648      -0.16372673       0.24903787
C       -0.38370648      -1.29272673       0.00003787
C       -1.43370648       0.69527327      -0.80796213
C        0.09529352      -1.53172673      -1.26696213
C       -0.93770648       0.45227327      -2.07796213
C       -0.17870648      -0.64872673      -2.30696213
H       -1.65070648       1.20427327       1.80903787
H       -0.98170648      -0.31972673       2.36803787
H       -0.15670648      -1.98472673       0.80003787
H       -2.04370648       1.56927327      -0.64196213
H        0.69729352      -2.40372673      -1.45796213
H       -1.17770648       1.11627327      -2.89096213
H        0.20729352      -0.84172673      -3.29796213
H       -2.67281648      -0.26383573       1.82277187
C        2.16629352       0.85927327       1.21603787
C        2.86029352       1.16127327       2.53303787
H        2.88729352       0.56427327       0.45603787
H        1.48029352       0.02927327       1.36903787
H        1.60729352       1.73027327       0.87103787
H        3.41129352       0.26827327       2.82903787
H        3.56873352       1.99054377       2.39010787
H        2.15626352       1.41097227       3.34049587
