17
Properties=species:S:1:pos:R:3 pbc="F F F"
C        2.06718601      -0.47045392       2.35183197
C        3.55618601      -0.48145392       2.68483197
H        1.60718601      -1.42645392       2.59883197
H        1.56618601       0.30354608       2.92883197
H        1.92718601      -0.25445392       1.29283197
H        3.71518601      -0.82445392       3.70883197
H        3.88718601       0.54554608       2.58383197
H        4.13586601      -1.08558392       1.97138197
C       -0.45681399      -0.57845392      -0.36516803
C       -2.72281399       0.79254608      -1.04716803
S       -1.12781399       0.35154608      -1.73916803
H       -1.12181399      -1.40045392      -0.11416803
H        0.51818601      -0.98045392      -0.64116803
H       -0.35081399       0.07354608       0.50183197
H       -2.57081399       1.24154608      -0.06516803
H       -3.33481399      -0.10245392      -0.93716803
H       -3.22683399       1.52057608      -1.69980803
