23
Properties=species:S:1:pos:R:3 pbc="F F F"
C        2.55456741       1.11125209      -2.56983702
C        3.70056741       1.07925209      -3.56683702
H        2.90756741       1.36325209      -1.56883702
H        1.82256741       1.85825209      -2.87683702
H        2.06656741       0.13725209      -2.54283702
H        3.27956741       0.92825209      -4.55983702
H        4.38574741       0.25302209      -3.32627102
H        4.23818741       2.03877209      -3.54958702
C       -1.91043259      -0.19574791       3.27316298
C       -0.37143259      -0.49374791      -0.73383702
C       -1.06443259       0.64725209      -0.33383702
C       -0.15743259      -1.52774791       0.17816298
C       -1.54643259       0.75125209       0.97316298
C       -0.63743259      -1.41974791       1.48216298
C       -1.33843259      -0.28174791       1.88616298
H       -0.01243259      -0.58574791      -1.74983702
H       -1.23143259       1.43625209      -1.03983702
H        0.37056741      -2.41274791      -0.13283702
H       -2.09243259       1.63625209       1.27416298
H       -0.46943259      -2.23174791       2.17616298
H       -1.71743259       0.80925209       3.63816298
H       -1.37443259      -0.88674791       3.92716298
H       -2.98746259      -0.41459791       3.31908598
