19
Properties=species:S:1:pos:R:3 pbc="F F F"
C       -1.21592423      -0.28368173      -0.47561163
C       -2.57192423      -1.00768173      -0.65961163
C       -1.45992423       0.90331827       0.45538837
H       -0.88692423       0.09731827      -1.44161163
H       -0.46092423      -0.95968173      -0.07261163
H       -2.69092423      -1.32768173      -1.69461163
H       -2.64092423      -1.86068173       0.01638837
H       -0.83892423       1.76031827       0.18738837
H       -1.21992423       0.57631827       1.46438837
H       -3.31084523      -0.24483173      -0.37317163
H       -2.53659123       1.12240827       0.40260837
C        2.36107577       0.62631827      -0.27761163
C        2.81707577      -0.25568173       0.92138837
H        3.22507577       1.04031827      -0.79761163
H        1.79707577       0.01331827      -0.98161163
H        1.72307577       1.43531827       0.07638837
H        1.91907577      -0.70668173       1.34138837
H        3.29423777       0.35135827       1.70484837
H        3.45702377      -1.08968173       0.59748837
