16
Properties=species:S:1:pos:R:3 pbc="F F F"
C       -0.06288727      -1.34589529       1.02917793
C        0.29511273      -2.44289529       2.06317793
H        0.42911273      -1.55289529       0.08817793
H       -1.13988727      -1.32589529       0.86817793
H        0.26211273      -0.37189529       1.39517793
H       -0.04188727      -3.41189529       1.69217793
H       -0.21788727      -2.22389529       3.00017793
H        1.36728873      -2.53810529       2.28983793
C       -0.78888727       1.53210471      -1.40982207
C        0.55911273       2.26110471      -1.68282207
H       -1.49388727       1.73510471      -2.21882207
H       -0.62588727       0.45510471      -1.35482207
H       -1.21988727       1.87710471      -0.47182207
H        0.93311273       1.89410471      -2.63782207
H        0.40718373       3.34900471      -1.74159207
H        1.31130873       2.06150471      -0.90541207
