27
Properties=species:S:1:pos:R:3 pbc="F F F"
C       -0.99616805      -4.23564294      -0.21194594
C        0.57483195      -0.96964294      -1.44494594
C       -0.37016805      -2.01064294      -1.23194594
C        1.82383195      -1.02464294      -0.82694594
C       -0.01616805      -3.11964294      -0.44894594
C        2.15783195      -2.12464294      -0.00994594
C        1.24283195      -3.15164294       0.16505406
H        0.31883195      -0.13264294      -2.07694594
H       -1.34016805      -1.95764294      -1.70394594
H        2.53583195      -0.22464294      -0.97994594
H        3.12783195      -2.17764294       0.46105406
H       -0.51416805      -5.02764294       0.36305406
H       -1.27116805      -4.64864294      -1.17894594
H        1.49783195      -3.98964294       0.79405406
H       -1.90191805      -3.90815094       0.31943406
C       -0.70616805       2.36535706      -0.13294594
C       -0.47816805       3.35635706      -1.27694594
C       -0.81016805       3.02635706       1.23705406
O        0.09583195       3.70035706       1.70205406
N       -1.85016805       2.71635706       1.96805406
H       -1.59616805       1.76735706      -0.33694594
H        0.14183195       1.68035706      -0.08594594
H        0.30383195       4.04635706      -0.95194594
H       -1.91116805       3.10935706       2.89505406
H       -2.59216805       2.15835706       1.57705406
H       -1.39457805       3.94343706      -1.43671594
H       -0.07947805       2.87918706      -2.18433594
