26
Properties=species:S:1:pos:R:3 pbc="F F F"
C        1.84597978      -2.29371069       2.05627146
C       -0.59502022      -0.55771069      -0.27172854
C        0.58997978      -1.05871069       0.26627146
C       -1.80302022      -0.75371069       0.39727146
C        0.57697978      -1.75171069       1.47627146
C       -1.82302022      -1.44871069       1.60527146
C       -0.63402022      -1.94771069       2.14027146
H       -0.58202022      -0.02871069      -1.21172854
H        1.51697978      -0.90771069      -0.26772854
H       -2.72302022      -0.36871069      -0.02172854
H       -2.75502022      -1.59471069       2.13227146
H        2.36897978      -2.86071069       1.29427146
H        1.57897978      -3.00271069       2.84327146
H       -0.65802022      -2.49671069       3.06927146
H        2.50966778      -1.52841069       2.48503846
C        0.51097978       2.40528931      -2.31372854
C        1.04597978       3.25728931      -3.47672854
C       -0.13702022       3.20028931      -1.19072854
H       -0.22402022       1.70328931      -2.70172854
H        1.32197978       1.83528931      -1.86072854
H        1.74197978       3.98828931      -3.06672854
H       -1.05402022       3.67828931      -1.53372854
H       -0.39002022       2.52528931      -0.37272854
H        0.55897978       3.95128931      -0.82172854
H        1.59023978       2.62172931      -4.19075854
H        0.22917978       3.79416931      -3.98130754
