18
Properties=species:S:1:pos:R:3 pbc="F F F"
C        1.46990062      -0.05488656      -2.62811701
C        2.60190062      -0.61388656      -3.46511701
H        0.77890062      -0.84388656      -2.36211701
H        1.89290062       0.35311344      -1.70811701
H        0.93690062       0.74611344      -3.13211701
H        3.37790062       0.14911344      -3.51711701
H        2.31459062      -0.87749656      -4.49368701
H        3.03357062      -1.49455656      -2.96703701
C       -0.06809938       0.42111344       0.56288299
C        0.34590062       1.77111344       1.14488299
C       -1.20009938      -0.29688656       1.30888299
O       -1.59609938       0.12911344       2.41388299
O       -1.66809938      -1.34188656       0.79188299
H       -0.32309938       0.52011344      -0.49211701
H        0.81190062      -0.22488656       0.60288299
H        1.28290062       2.04611344       0.66288299
H        0.54690062       1.67411344       2.21288299
H       -0.37237938       2.58593344       0.97125299
