17
Properties=species:S:1:pos:R:3 pbc="F F F"
C       -1.75157933      -1.19299232       0.94530384
C       -2.61957933      -2.39299232       0.55730384
H       -2.02857933      -0.83399232       1.93630384
H       -0.70257933      -1.47599232       0.94830384
H       -1.88057933      -0.38699232       0.22330384
H       -2.51457933      -3.14599232       1.33930384
H       -3.67970133      -2.11138632       0.47460384
H       -2.24054933      -2.84205132      -0.37257616
C        2.03742067       0.31700768       0.53730384
C        1.05242067       0.98300768      -0.38569616
O        0.68242067       2.13800768      -0.20269616
N        0.68142067       0.25500768      -1.41369616
H        1.90842067      -0.76699232       0.52130384
H        1.83642067       0.67400768       1.54830384
H        0.09242067       0.69500768      -2.10169616
H        1.11242067      -0.63299232      -1.61769616
H        3.06434067       0.58818968       0.25113384
