14
Properties=species:S:1:pos:R:3 pbc="F F F"
C       -0.01278942      -0.67874213      -2.23887674
O        0.76121058      -1.00574213      -1.08987674
H        1.28721058      -1.79474213      -1.30787674
H        0.61321058      -0.78574213      -3.12587674
H       -0.87868942      -1.35373213      -2.30680674
H       -0.33898942       0.36899787      -2.16254674
C        0.30821058       0.88625787       1.56612326
C       -1.15578942       0.96625787       1.97912326
H        0.95321058       1.11125787       2.41612326
H        0.53621058      -0.12074213       1.22712326
H        0.50821058       1.59225787       0.76112326
H       -1.78578942       0.85825787       1.09612326
H       -1.33647942       1.94455787       2.44847326
H       -1.38818942       0.15648787       2.68641326
