23
Properties=species:S:1:pos:R:3 pbc="F F F"
C       -2.63566887       1.56921321       0.01281512
C        1.24033113       0.13621321      -1.20118488
C        1.13433113       1.16921321      -0.29418488
C        0.09733113      -0.39578679      -1.75918488
C       -0.11866887       1.64521321       0.09381512
C       -1.16066887       0.08221321      -1.37418488
C       -1.27866887       1.10421321      -0.44918488
H        2.21133113      -0.25378679      -1.47318488
H        2.02933113       1.59421321       0.12981512
H        0.20033113      -1.21278679      -2.44918488
H       -0.18166887       2.44121321       0.82181512
H       -2.04766887      -0.36078679      -1.80018488
H       -2.53866887       1.94721321       1.03281512
H       -3.31166887       0.71321321       0.05181512
H       -3.08411887       2.35759321      -0.60955488
C        0.88633113      -2.52378679       1.52281512
C        1.74233113      -2.20578679       2.73581512
H        0.63733113      -1.59878679       1.00481512
H        1.42833113      -3.17378679       0.83781512
H       -0.04066887      -3.00378679       1.83281512
H        1.17033113      -1.57478679       3.40781512
H        1.98661013      -3.13678479       3.26832512
H        2.64926013      -1.66019479       2.43613512
