30
Properties=species:S:1:pos:R:3 pbc="F F F"
C        2.23730963       0.60483067      -1.68659331
C        0.90830963      -0.57216933       0.21140669
C        2.08730963       0.03783067      -0.32259331
C        1.20330963      -0.98416933       1.53740669
C        3.02130963      -0.00816933       0.66440669
C       -0.36469037      -0.82016933      -0.30659331
C       -1.30169037      -1.46516933       0.49340669
C       -0.98669037      -1.85416933       1.80340669
C        0.26930963      -1.61716933       2.34440669
N        2.49930963      -0.61716933       1.78240669
H       -0.60269037      -0.51616933      -1.31459331
H       -2.29069037      -1.67316933       0.10640669
H       -1.73869037      -2.34516933       2.40740669
H        2.97630963       1.40783067      -1.66459331
H        1.28230963       1.04783067      -1.97359331
H        4.03230963       0.38183067       0.58040669
H        3.00530963      -0.74916933       2.65340669
H        0.51330963      -1.91616933       3.35540669
H        2.52738963      -0.14006303      -2.44223031
C       -2.64569037       1.82783067      -1.51759331
C       -3.51969037       1.14783067      -2.57559331
C       -2.67169037       3.35883067      -1.55059331
H       -2.53669037       1.37083067      -0.56659331
H       -1.63669037       1.61083067      -1.87459331
H       -3.14369037       1.41983067      -3.55859331
H       -2.08769037       3.70583067      -2.40459331
H       -3.69169037       3.71583067      -1.68059331
H       -4.56797037       1.47084367      -2.49333031
H       -3.47399037       0.05315267      -2.47766031
H       -2.28572037       3.83072367      -0.63498031
