16
Properties=species:S:1:pos:R:3 pbc="F F F"
C       -1.36367316      -0.65355085       0.21370081
C       -1.81667316      -1.89355085       0.98570081
H       -1.29467316      -0.87255085      -0.85229919
H       -2.09567316       0.14244915       0.35870081
H       -0.40467316      -0.31455085       0.58870081
H       -2.78567316      -2.18855085       0.57970081
H       -1.12205316      -2.73426085       0.84176081
H       -1.96776316      -1.72384085       2.06198081
C        1.71632684       0.59744915      -0.90029919
C        1.46532684       1.95544915      -0.29529919
H        2.49632684       0.66044915      -1.65929919
H        2.04232684      -0.08655085      -0.11829919
H        0.81832684       0.19044915      -1.35729919
H        0.74632684       1.89444915       0.52270081
H        1.11494684       2.64181915      -1.08023719
H        2.43667684       2.32161915       0.06857081
