28
Properties=species:S:1:pos:R:3 pbc="F F F"
C       -0.87184177      -0.00802752       1.59184483
C       -0.24184177      -0.24402752       2.98384483
C       -2.05084177      -0.86202752       1.35584483
O       -1.94984177      -2.07802752       1.36684483
N       -3.19484177      -0.24102752       1.10584483
H       -1.14184177       1.04297248       1.48284483
H       -0.13984177      -0.25202752       0.82884483
H       -0.97684177      -0.06202752       3.77284483
H       -4.01284177      -0.80202752       0.91684483
H       -3.24084177       0.76697248       1.08484483
H        0.61125823       0.44516248       3.06892483
H        0.19802823      -1.24570752       3.09853483
C        3.17615823      -1.50802752      -0.40215517
C        0.03815823       0.10297248      -1.91215517
C        0.99015823      -0.87002752      -1.60115517
C        0.20715823       1.41297248      -1.47115517
C        2.09515823      -0.53402752      -0.79215517
C        1.28615823       1.73497248      -0.67415517
C        2.22615823       0.77697248      -0.35415517
O       -0.70284177       2.38097248      -1.78615517
H       -0.81684177      -0.15702752      -2.52015517
H        0.84515823      -1.87602752      -1.97015517
H       -1.41384177       2.03897248      -2.34215517
H        1.40015823       2.75097248      -0.32215517
H        3.35015823      -1.41702752       0.67184483
H        4.09315823      -1.19402752      -0.89915517
H        3.07215823       1.04797248       0.25484483
H        2.99428823      -2.56674852      -0.63887017
