16
Properties=species:S:1:pos:R:3 pbc="F F F"
C       -1.13661817      -0.96109719      -1.43923034
C       -1.99261817      -1.94709719      -0.69623034
H       -0.13461817      -1.36709719      -1.58523034
H       -1.57161817      -0.75109719      -2.41623034
H       -1.07061817      -0.03009719      -0.87623034
H       -2.06461817      -2.83909719      -1.31723034
H       -1.52222817      -2.20842519       0.26316966
H       -3.00524817      -1.54233319      -0.55219034
C        1.31938183       0.84190281       0.72776966
C        1.80238183       2.07690281       1.41076966
H        0.89838183       1.07290281      -0.24723034
H        2.14038183       0.13590281       0.60076966
H        0.55438183       0.36590281       1.33976966
H        2.33038183       1.76590281       2.31476966
H        0.99265183       2.75639281       1.71512966
H        2.54181183       2.51470281       0.72404966
