15
Properties=species:S:1:pos:R:3 pbc="F F F"
C        0.99975504       1.98742817      -2.11763392
O       -0.17124496       1.53542817      -1.45063392
H       -0.79324496       1.24542817      -2.13163392
H        0.74375504       2.88742817      -2.67763392
H        1.75068504       2.24880817      -1.35751592
H        1.37593504       1.24510817      -2.83697692
C       -0.26224496      -1.58257183      -0.35463392
C       -1.08924496       0.06242817       1.58336608
S        0.28475504      -1.04757183       1.24936608
H       -0.54624496      -0.74257183      -0.97663392
H        0.53975504      -2.13257183      -0.84663392
H       -1.12524496      -2.23857183      -0.24163392
H       -1.99224496      -0.51657183       1.75736608
H       -1.24124496       0.71142817       0.72136608
H       -0.85953496       0.67232817       2.46950808
