18
Properties=species:S:1:pos:R:3 pbc="F F F"
C        3.17618501      -0.85729684       1.28699604
C        1.91018501      -0.14229684       0.91799604
O        1.14518501       0.38470316       1.74499604
N        1.66318501      -0.11629684      -0.36400396
H        3.94918501      -0.59829684       0.56199604
H        2.99718501      -1.92629684       1.19399604
H        0.89218501       0.49870316      -0.63700396
H        2.08518501      -0.81729684      -0.95900396
H        3.55324501      -0.60326684       2.28863604
C       -3.29681499      -0.02929684      -1.40300396
C       -1.92681499       0.24070316      -0.82100396
O       -1.81481499       0.62370316       0.35499604
N       -0.88181499      -0.03129684      -1.59500396
H       -3.77581499      -0.76829684      -0.75900396
H       -3.18381499      -0.47229684      -2.39000396
H       -0.15681499      -0.54429684      -1.13200396
H       -1.02481499      -0.20029684      -2.59400396
H       -3.92958499       0.86891316      -1.45609396
