23
Properties=species:S:1:pos:R:3 pbc="F F F"
C       -1.24757344      -1.31614279       3.55973063
C       -2.30657344      -2.12314279       2.80373063
H       -0.31157344      -1.87014279       3.61673063
H       -1.07257344      -0.37214279       3.04373063
H       -1.61157344      -1.11214279       4.56573063
H       -1.93257344      -2.34114279       1.80373063
H       -2.51217044      -3.06260779       3.33771063
H       -3.21419644      -1.51058279       2.69887063
C        0.53842656       2.11585721      -2.92926937
C       -0.57757344       0.00485721       0.04673063
C       -0.61557344       0.90885721      -1.06226937
C        0.62742656      -0.63114279       0.41173063
C        0.55542656       1.17685721      -1.76626937
C        1.80042656      -0.36414279      -0.31626937
C        1.74042656       0.51885721      -1.40426937
H       -1.48357344      -0.19714279       0.59873063
H       -1.54557344       1.38785721      -1.33926937
H        0.65242656      -1.31814279       1.24673063
H        2.73242656      -0.84614279      -0.04926937
H       -0.47057344       2.13385721      -3.34326937
H        1.17342656       1.78385721      -3.72526937
H        2.64742656       0.71085721      -1.95926937
H        0.81402066       3.14969721      -2.67387937
