24
Properties=species:S:1:pos:R:3 pbc="F F F"
C        2.50974584       0.16013393       1.74611259
C        3.52174584       0.77113393       2.72411259
H        2.94374584       0.08413393       0.74811259
H        2.18574584      -0.82386607       2.07811259
H        1.60974584       0.75913393       1.68111259
H        3.11874584       0.67713393       3.73511259
H        3.68869784       1.83876393       2.51846859
H        4.45958384       0.19908393       2.66733959
C        1.34674584      -1.92386607      -1.38088741
C       -0.44325416      -1.16086607       0.21911259
C        0.22774584      -0.99286607      -0.98688741
C       -1.47625416      -0.30586607       0.57611259
C       -1.86325416       0.71813393      -0.28888741
C       -0.16725416       0.03213393      -1.84788741
C       -1.21325416       0.89213393      -1.51188741
O       -2.87425416       1.53813393       0.09511259
H       -0.14025416      -1.94486607       0.89811259
H       -1.97225416      -0.43086607       1.52811259
H        2.00974584      -2.07586607      -0.52988741
H        1.93674584      -1.42986607      -2.15388741
H        0.34374584       0.16613393      -2.78988741
H       -3.15325416       1.33813393       0.99211259
H       -1.50625416       1.68813393      -2.17688741
H        0.98917684      -2.89369607      -1.75716241
