20
Properties=species:S:1:pos:R:3 pbc="F F F"
C       -1.23393160       0.52450928      -2.70379767
C       -0.23493160       1.41350928      -1.95779767
O       -0.19793160       1.32350928      -0.70279767
O        0.51206840       2.18450928      -2.59279767
H       -2.20793160       0.59850928      -2.21679767
H       -0.88193160      -0.50349072      -2.61479767
H       -1.33264160       0.79615128      -3.76514767
C       -1.34193160      -2.11449072       1.03420233
C        0.61306840      -0.82549072       1.72620233
N       -0.41593160      -0.98349072       0.90620233
N        0.91506840      -1.72149072       2.64120233
N        1.35106840       0.23350928       1.56820233
H       -0.60193160      -0.23649072       0.23520233
H       -1.84393160      -2.05049072       2.00320233
H       -0.80193160      -3.06149072       0.98220233
H        0.32506840      -2.52549072       2.77620233
H        1.69906840      -1.57449072       3.25820233
H        1.09606840       0.86550928       0.81620233
H        2.15306840       0.40550928       2.15320233
H       -2.11171160      -2.11085972       0.24844233
