16
Properties=species:S:1:pos:R:3 pbc="F F F"
C       -0.31687409       2.17959914       1.50843441
C        1.09412591       1.65859914       1.63443441
O        1.95212591       2.29459914       2.24243441
N        1.35112591       0.49159914       1.07743441
H        2.28812591       0.12859914       1.14843441
H        0.67612591       0.04659914       0.45543441
H       -0.91787409       1.45359914       0.96843441
H       -0.32687409       3.09659914       0.93043441
H       -0.76983709       2.35630914       2.49514441
C       -2.25587409      -1.87740086      -0.92256559
C       -0.94887409      -1.61940086      -1.63556559
O       -0.12887409      -0.78640086      -1.17156559
O       -0.75287409      -2.27340086      -2.68656559
H       -2.40387409      -2.95240086      -0.79656559
H       -3.06287409      -1.49940086      -1.55456559
H       -2.32174309      -1.38374086       0.05823441
