27
Properties=species:S:1:pos:R:3 pbc="F F F"
C       -1.06813556      -1.40309216       3.04574101
C        0.38186444       1.09690784       0.63074101
C       -0.55213556       0.07890784       0.94174101
C       -0.31313556      -0.34209216       2.29574101
C        0.71686444       0.41990784       2.74374101
C       -0.48413556       1.27490784      -1.56825899
C        0.42386444       1.70890784      -0.61325899
C       -1.40513556       0.26090784      -1.29025899
C       -1.44713556      -0.33909216      -0.04925899
N        1.14986444       1.27690784       1.75174101
H       -0.47713556       1.71090784      -2.55125899
H        1.13786444       2.48890784      -0.82325899
H       -2.08613556      -0.06709216      -2.05725899
H       -2.17013556      -1.11309216       0.15774101
H        1.91286444       1.93890784       1.85874101
H        1.15386444       0.35590784       3.73074101
H       -0.49313556      -2.32309216       3.03974101
H       -1.97113556      -1.59009216       2.47074101
H       -1.33987556      -1.10750216       4.06984101
C        1.72686444      -1.39609216      -3.25925899
C        0.48686444      -2.00909216      -3.94525899
H        1.65386444      -0.31109216      -3.20225899
H        1.79986444      -1.78309216      -2.24425899
H        2.62086444      -1.68209216      -3.81225899
H       -0.40813556      -1.70209216      -3.40325899
H        0.56886444      -3.08709216      -3.84425899
H        0.39189444      -1.73856216      -5.00723499
