26
Properties=species:S:1:pos:R:3 pbc="F F F"
C       -1.23598917       0.40062695       0.52105238
C       -1.96998917       0.24062695       1.85105238
C        0.24301083       0.18162695       0.63505238
C        0.80901083      -1.01637305       0.20705238
C        1.05101083       1.15762695       1.21705238
C        2.18001083      -1.25037305       0.35505238
C        2.42301083       0.94262695       1.37905238
C        3.00001083      -0.26737305       0.94805238
H       -1.65398917      -0.30137305      -0.19894762
H       -1.40898917       1.40662695       0.13905238
H       -1.56998917       0.95962695       2.56805238
H        0.18801083      -1.77637305      -0.24394762
H        0.61601083       2.08862695       1.55205238
H        2.61201083      -2.18037305       0.01405238
H        3.04201083       1.70762695       1.83005238
H        4.06201083      -0.43737305       1.06605238
H       -1.87023917      -0.78391305       2.23881838
H       -3.04279917       0.43126695       1.70027938
C       -1.99998917       0.19262695      -3.06894762
C       -3.25998917      -0.57837305      -3.33194762
H       -2.14498917       0.93862695      -2.29094762
H       -1.21998917      -0.49637305      -2.74594762
H       -1.67198917       0.68462695      -3.98294762
H       -3.05198917      -1.36637305      -4.05094762
H       -4.04950917       0.09134695      -3.70361322
H       -3.61230917      -1.00518305      -2.38131462
