29
Properties=species:S:1:pos:R:3 pbc="F F F"
C        0.15756990      -0.62104509      -1.00150721
C       -0.08043010      -1.60904509      -2.12950721
C       -1.05443010      -0.39904509      -0.15250721
C       -2.00143010       0.55495491      -0.54850721
C       -1.28343010      -1.14404509       0.99249279
C       -3.12643010       0.80895491       0.21749279
C       -2.43343010      -0.91304509       1.76749279
C       -3.35443010       0.07895491       1.37449279
H        0.96556990      -0.98804509      -0.37050721
H        0.47256990       0.33195491      -1.42750721
H       -0.86143010      -1.20504509      -2.77250721
H       -1.84043010       1.12095491      -1.45550721
H       -0.57343010      -1.90004509       1.29749279
H       -3.83943010       1.55895491      -0.09250721
H       -2.60743010      -1.48904509       2.66649279
H       -4.23643010       0.26595491       1.97149279
H       -0.34613010      -2.61641509      -1.77650721
H        0.83154990      -1.72186509      -2.73411721
C        3.27256990       1.09595491      -0.00950721
C        4.29756990       2.24295491       0.16249279
C        3.97956990      -0.22804509      -0.24650721
H        2.65256990       1.02495491       0.88449279
H        2.61956990       1.26995491      -0.86250721
H        5.10056990       2.08095491      -0.55950721
H        4.69256990      -0.42904509       0.54949279
H        3.25256990      -1.03804509      -0.28250721
H        4.51456990      -0.19604509      -1.19550721
H        3.82629990       3.20679491      -0.08023721
H        4.75989990       2.30189491       1.15887279
