14
Properties=species:S:1:pos:R:3 pbc="F F F"
C       -0.76281933       2.20672239       1.42317845
C       -0.09781933       2.24072239       0.04417845
O        1.05218067       1.76072239      -0.06982155
O       -0.71181933       2.73272239      -0.93282155
H       -0.07981933       2.62272239       2.16717845
H       -0.97481933       1.17172239       1.70217845
H       -1.70090933       2.78012239       1.45783845
C       -1.21681933      -1.83027761      -0.16882155
C        0.20518067      -2.26327761      -0.11882155
O        1.05518067      -1.38927761       0.16217845
O        0.47918067      -3.46227761      -0.34782155
H       -1.24281933      -0.74827761      -0.32982155
H       -1.67681933      -2.03427761       0.78617845
H       -1.77100933      -2.32490761      -0.98013155
