17
Properties=species:S:1:pos:R:3 pbc="F F F"
C       -1.10817770      -1.23436164       1.28055396
C       -1.17817770       0.22763836       0.87855396
O       -0.22717770       1.00363836       1.05355396
N       -2.29517770       0.60863836       0.34955396
H       -1.21217770      -1.22536164       2.36855396
H       -0.10117770      -1.60936164       1.07855396
H       -2.30217770       1.56063836       0.00155396
H       -3.16917770       0.17363836       0.59055396
H       -1.88747770      -1.89615164       0.87468396
C        2.10182230      -0.30236164      -1.04544604
C        2.68282230      -0.32536164      -2.45844604
H        2.55782230       0.48363836      -0.44444604
H        2.30082230      -1.25736164      -0.55644604
H        1.02382230      -0.15036164      -1.09444604
H        3.76782230      -0.40336164      -2.37644604
H        2.42795230       0.61156336      -2.97536604
H        2.32432230      -1.19929464      -3.02211604
