23
Properties=species:S:1:pos:R:3 pbc="F F F"
C        1.74979128       0.78383090      -1.81426016
C       -0.46420872      -0.23916910      -1.16526016
C        0.94679128      -0.21916910      -1.04126016
C       -1.26320872      -1.14216910      -0.45026016
C       -0.67220872      -2.05416910       0.43073984
C        1.56079128      -1.12716910      -0.16026016
C        0.74079128      -2.05016910       0.59273984
H       -0.95320872       0.47583090      -1.81226016
H       -2.33320872      -1.12516910      -0.57426016
H        2.72679128       0.88483090      -1.34126016
H        1.24979128       1.74883090      -1.74226016
H       -1.28520872      -2.75016910       0.98773984
H        2.63579128      -1.13116910      -0.03826016
H        1.20679128      -2.75116910       1.27373984
H        1.88557428       0.52008090      -2.87351016
C       -0.71720872       2.63783090       1.04573984
C       -1.70120872       2.46983090       2.24773984
H       -0.11020872       1.73883090       0.93173984
H       -1.28720872       2.79583090       0.12973984
H       -0.06820872       3.50083090       1.19373984
H       -2.18020872       3.42783090       2.43873984
H       -1.15328872       2.14642090       3.14506184
H       -2.48025872       1.72531090       2.02690084
