21
Properties=species:S:1:pos:R:3 pbc="F F F"
C        1.44654321      -0.20487068       1.02954134
C        2.01654321      -1.17687068      -0.01445866
C        1.77154321      -0.68687068       2.48454134
C        2.10254321       1.17112932       0.80554134
H        0.36554321      -0.14187068       0.89754134
H        3.10654321      -1.11287068       0.01854134
H        2.85254321      -0.74487068       2.62554134
H        1.35554321       0.01112932       3.21354134
H        1.33854321      -1.67387068       2.66054134
H        1.88854321       1.52812932      -0.20345866
H        1.71154321       1.88612932       1.52854134
H        3.18254321       1.08412932       0.93254134
H        1.68358321      -0.90152068      -1.02604866
H        1.72610321      -2.21375068       0.21033134
C       -3.11045679       0.86012932      -1.01745866
C       -1.74545679       0.18412932      -1.06945866
O       -1.61745679      -0.90687068      -0.49045866
O       -0.80445679       0.74412932      -1.66945866
H       -3.08445679       1.76912932      -1.61945866
H       -3.33645679       1.12512932       0.01854134
H       -3.91532679       0.21907932      -1.40635866
