29
Properties=species:S:1:pos:R:3 pbc="F F F"
C        0.36311134      -0.22591086       0.60077956
C        0.51911134       0.45708914       1.89877956
C        2.69011134       0.32308914       0.90477956
C        0.84511134      -0.76391086      -2.21922044
C        1.94211134      -0.14691086      -1.33322044
O        3.03711134       0.21008914      -1.80122044
N        1.67811134      -0.09191086      -0.02922044
H        0.11911134      -1.27891086       0.75177956
H       -0.39588866       0.28508914       0.01177956
H       -0.14488866       0.03908914       2.65577956
H        0.32611134       1.52408914       1.77477956
H        2.95911134       1.35708914       0.69177956
H       -0.14788866      -0.46691086      -1.88322044
H        1.57723134       0.30382414       2.15741956
H        2.16323134       0.27004314       1.86892956
H        3.57254134      -0.33324086       0.88138956
H        0.99627134      -0.40518086      -3.24804044
H        0.96155134      -1.85392086      -2.12803044
C       -3.20388866      -0.08991086       1.03077956
C       -4.11788866       1.17508914       1.10977956
C       -3.55488866      -0.91191086      -0.24822044
H       -2.16788866       0.21008914       1.04377956
H       -3.39788866      -0.71291086       1.90477956
H       -4.05888866       1.56208914       2.12877956
H       -5.15488866       0.87608914       0.94777956
H       -4.64088866      -1.02791086      -0.27822044
H       -3.26888866      -0.30391086      -1.10822044
H       -3.86796866       1.99855114       0.42460956
H       -3.12864866      -1.91652086      -0.38633044
