20
Properties=species:S:1:pos:R:3 pbc="F F F"
C       -2.38562462       1.23785839      -0.74626637
C       -1.89962462       1.29585839       0.68973363
O       -0.98562462       0.51085839       1.03173363
O       -2.42362462       2.11885839       1.47373363
H       -1.79462462       0.49485839      -1.28426637
H       -2.21662462       2.19485839      -1.23526637
H       -3.45071462       0.97158539      -0.81463637
C        0.40037538      -2.08714161      -1.73926637
C        1.80437538      -0.77114161      -0.17226637
N        0.62037538      -1.18414161      -0.60126637
N        2.91337538      -1.18014161      -0.75926637
N        1.87437538       0.07785839       0.83273363
H       -0.18562462      -0.79714161      -0.11326637
H        2.86937538      -1.86114161      -1.49926637
H        3.81137538      -0.88014161      -0.41526637
H        0.98637538       0.38485839       1.23073363
H        2.75537538       0.36885839       1.22073363
H       -0.59162462      -2.53514161      -1.63926637
H        1.12937538      -2.90114161      -1.73926637
H        0.43914538      -1.54003161      -2.69276637
