27
Properties=species:S:1:pos:R:3 pbc="F F F"
C        0.25273716      -1.70891175       2.25443527
C        0.59173716       0.10708825       0.40943527
C        1.07373716      -0.88291175       1.32943527
C        1.71673716       0.63408825      -0.27156473
C        2.42373716      -0.92391175       1.17843527
C       -0.67726284       0.60508825       0.09343527
C       -0.78926284       1.59708825      -0.87556473
C        0.34373716       2.10108825      -1.52956473
C        1.60773716       1.62608825      -1.23356473
N        2.81373716      -0.01591175       0.22443527
H       -1.54526284       0.23308825       0.61043527
H       -1.76326284       1.98408825      -1.13656473
H        0.22173716       2.88208825      -2.26656473
H        0.71873716      -2.67491175       2.34243527
H       -0.73226284      -1.86391175       1.81343527
H        3.09173716      -1.57991175       1.72743527
H        3.77473716       0.21008825      -0.02756473
H        2.49173716       2.03008825      -1.69756473
H        0.14747116      -1.29506175       3.26816527
C       -4.21526284      -0.52291175      -1.00156473
C       -4.05926284      -1.97791175      -0.59456473
H       -3.37226284       0.07308825      -0.66156473
H       -4.26826284      -0.46091175      -2.08956473
H       -5.14426284      -0.10891175      -0.60956473
H       -4.96726284      -2.50891175      -0.88356473
H       -3.91837984      -2.06158175       0.49316527
H       -3.20942284      -2.42981175      -1.12706473
