15
Properties=species:S:1:pos:R:3 pbc="F F F"
C       -2.05124142      -1.04020205       0.49004981
C       -1.69624142      -2.49820205       0.57304981
H       -3.13124142      -0.92020205       0.41404981
H       -1.63024142      -0.52720205       1.32704981
H       -1.63224142      -0.65120205      -0.43595019
H       -1.84624142      -2.92520205      -0.41995019
H       -0.64010142      -2.62825405       0.85173281
H       -2.37501142      -3.02702005       1.25833981
C        0.91075858       1.26179795      -1.65595019
C        0.95275858       0.86979795      -0.19095019
O       -0.09824142       0.95579795       0.49004981
O        2.04875858       0.51679795       0.29204981
H        1.05275858       0.36979795      -2.26995019
H        1.72975858       1.95479795      -1.86395019
H       -0.03737142       1.74447795      -1.93536019
