16
Properties=species:S:1:pos:R:3 pbc="F F F"
C       -1.29888390       1.00370139      -0.81436127
C       -2.75588390       1.44770139      -1.01436127
H       -1.01388390       0.30070139      -1.59536127
H       -0.64488390       1.87470139      -0.86636127
H       -1.17288390       0.52770139       0.15663873
H       -2.95788390       2.25370139      -0.30936127
H       -3.41739390       0.59852139      -0.78786627
H       -2.88739390       1.83438139      -2.03572627
C        1.36011610      -0.84829861       0.92263873
C        2.69211610      -1.60329861       0.90363873
H        1.39511610       0.01770139       0.26563873
H        0.55811610      -1.50629861       0.59063873
H        1.14411610      -0.51329861       1.93463873
H        2.85111610      -1.99429861      -0.10236127
H        3.52497610      -0.93873861       1.17694373
H        2.65109610      -2.45245861       1.60167373
