33
Properties=species:S:1:pos:R:3 pbc="F F F"
C       -4.08799551      -1.47386495       0.85623812
C       -0.95599551      -0.22686495      -0.82176188
C       -2.03399551      -0.01586495       0.07523812
C       -2.84899551      -1.20286495       0.06923812
C       -2.23799551      -2.04886495      -0.79576188
C        0.00600449       0.73013505      -1.06676188
C       -0.12199551       1.94513505      -0.41976188
C       -1.16999551       2.17313505       0.47523812
C       -2.11099551       1.20913505       0.74223812
N       -1.11299551      -1.48286495      -1.32276188
H        0.81800449       0.53713505      -1.75276188
H        0.61200449       2.72113505      -0.59176188
H       -0.56499551      -1.92086495      -2.06876188
H       -1.21999551       3.10713505       1.00723812
H       -2.59999551      -3.03786495      -1.04876188
H       -2.88999551       1.39213505       1.46423812
H       -3.92899551      -1.12186495       1.86323812
H       -4.21999551      -2.55586495       0.92223812
H       -5.01394851      -1.04479895       0.44573812
C        3.46800449       0.17513505       0.50023812
C        3.90800449      -1.10386495       1.24823812
C        3.98800449       1.42713505       1.21223812
C        3.86000449       0.16113505      -0.97576188
H        2.38000449       0.21813505       0.54423812
H        3.51200449      -1.03686495       2.26023812
H        5.07600449       1.46713505       1.16823812
H        3.58400449       2.31113505       0.71923812
H        3.66700449       1.42613505       2.25423812
H        3.35800449      -0.65486495      -1.49376188
H        3.55400449       1.09713505      -1.44176188
H        4.93600449       0.04613505      -1.07576188
H        5.00143449      -1.19973995       1.32052812
H        3.43224449      -1.98258095       0.78833812
