26
Properties=species:S:1:pos:R:3 pbc="F F F"
C       -0.62573418       0.02032188       1.32978763
C        0.08726582      -0.41067812       2.61178763
C        0.18226582       0.82332188       0.35078763
C        1.48726582       1.24332188       0.61178763
C       -0.38773418       1.15132188      -0.87121237
C        2.19026582       1.99232188      -0.33421237
C        0.31326582       1.89632188      -1.81221237
C        1.60626582       2.31232188      -1.53821237
H       -1.01073418      -0.85467812       0.81778763
H       -1.47973418       0.63732188       1.61278763
H        0.51226582       0.45232188       3.12478763
H        1.95626582       1.06832188       1.55078763
H       -1.39173418       0.82232188      -1.09921237
H        3.19626582       2.32732188      -0.12121237
H       -0.14073418       2.11132188      -2.76421237
H        2.15326582       2.89732188      -2.26421237
H        0.83000982      -1.20550412       2.44874763
H       -0.70156618      -0.85635012       3.23558763
C       -2.04473418      -3.09467812      -0.29321237
C       -2.09473418      -4.61467812      -0.41621237
H       -2.54873418      -2.65067812      -1.15221237
H       -2.53973418      -2.74467812       0.61078763
H       -1.00973418      -2.75867812      -0.31221237
H       -1.56073418      -4.91767812      -1.31821237
H       -1.62746718      -5.10766612       0.44901763
H       -3.14088523      -4.93972412      -0.51577237
