33
Properties=species:S:1:pos:R:3 pbc="F F F"
C        1.34215794       2.99897513       0.40130281
C        2.42615794       0.74697513       0.73430281
C        2.39315794       1.97197513       0.06330281
C        3.39215794      -0.20102487       0.40330281
C        4.34615794       0.07597513      -0.58269719
C        3.32915794       2.22397513      -0.95469719
C        4.31615794       1.29397513      -1.26269719
H        1.70715794       0.52497513       1.49730281
H        3.40315794      -1.15402487       0.91530281
H        1.78815794       3.99297513       0.41330281
H        0.98715794       2.79397513       1.41130281
H        5.10115794      -0.66002487      -0.82869719
H        3.30815794       3.16797513      -1.48269719
H        5.05315794       1.51097513      -2.02469719
H        0.49097794       2.98387813      -0.29530719
C       -1.02784206      -0.85802487       1.36230281
C       -1.50184206      -0.47702487       2.76330281
C       -2.14184206      -1.10502487       0.36630281
C       -2.62184206      -0.06602487      -0.44069719
C       -2.68284206      -2.38902487       0.21430281
C       -3.63584206      -0.27902487      -1.36269719
C       -3.67884206      -2.62802487      -0.72069719
C       -4.15884206      -1.56502487      -1.53369719
H       -0.39384206      -0.06302487       0.97030281
H       -0.41984206      -1.76102487       1.43230281
H       -2.18084206      -1.25202487       3.11130281
H       -2.20884206       0.92497513      -0.33869719
H       -2.31184206      -3.20002487       0.81630281
H       -3.98984206       0.53297513      -1.94869719
H       -4.03984206      -3.63402487      -0.87169719
H       -4.80284206      -1.73202487      -2.37269719
H       -2.03137206       0.48712243       2.75878281
H       -0.59636206      -0.40876887       3.38414281
