24
Properties=species:S:1:pos:R:3 pbc="F F F"
C        3.87239518       0.40949447      -1.26568798
C        0.34739518       0.57249447       0.21031202
C        1.40439518       0.51349447      -0.70668798
C        0.61039518       0.63049447       1.59531202
C        2.73239518       0.50249447      -0.25868798
C        1.93439518       0.63349447       2.06331202
C        2.99039518       0.56149447       1.12731202
H       -0.67360482       0.57549447      -0.14968798
H        1.19639518       0.47749447      -1.76868798
H       -0.21260482       0.67349447       2.29831202
H        2.14739518       0.68949447       3.12631202
H        3.59939518      -0.35150553      -1.99468798
H        4.75239518       0.07249447      -0.72268798
H        4.01739518       0.55249447       1.47131202
H        4.11704918       1.34745447      -1.78566798
C       -2.65960482      -1.29650553      -1.14168798
C       -2.94360482      -0.28650553      -2.26268798
S       -3.17960482      -0.78350553       0.50431202
H       -3.18060482      -2.22850553      -1.35968798
H       -1.58660482      -1.48850553      -1.08468798
H       -2.54660482       0.68749447      -1.96068798
H       -2.77160482      -1.89450553       1.12631202
H       -4.02729882      -0.22460553      -2.44093798
H       -2.46574282      -0.66493553      -3.17834798
