18
Properties=species:S:1:pos:R:3 pbc="F F F"
C       -1.79351920       0.78037047      -2.28505017
C       -0.32551920       0.45037047      -2.43605017
O        0.26548080      -0.19462953      -1.57305017
N        0.28948080       0.92537047      -3.51005017
H       -2.21751920       1.06437047      -3.24805017
H       -1.84851920       1.65537047      -1.63805017
H        1.26748080       0.71537047      -3.62905017
H       -0.22951920       1.38437047      -4.25405017
H       -2.36711920      -0.04704953      -1.84195017
C       -0.53851920       0.45037047       3.05494983
C        0.44048080      -0.54762953       2.48994983
O        1.00248080      -1.35162953       3.22594983
N        0.61648080      -0.54762953       1.17994983
H        1.25848080      -1.21262953       0.77994983
H        0.14548080       0.10437047       0.57294983
H       -1.00051920       1.02437047       2.24994983
H        0.01748080       1.14137047       3.68694983
H       -1.32196920      -0.04287953       3.64904983
