16
Properties=species:S:1:pos:R:3 pbc="F F F"
C        2.73683988       0.57924744      -1.43919452
C        1.41583988       0.74424744      -0.70219452
O        0.85983988      -0.27275256      -0.23719452
O        0.93083988       1.89724744      -0.60519452
H        3.32183988       1.50124744      -1.39019452
H        2.49283988       0.38024744      -2.48019452
H        3.34487788      -0.25087256      -1.05036452
C       -1.89716012      -1.52075256       1.04680548
C       -2.16316012      -0.47475256       2.12780548
O       -1.73616012      -0.87475256      -0.20219452
H       -0.98516012      -2.07275256       1.28180548
H       -2.73716012      -2.21675256       0.99780548
H       -1.33716012       0.23524744       2.10980548
H       -0.78616012      -0.60075256      -0.21919452
H       -2.19727112      -0.95306256       3.11778548
H       -3.08250912       0.08497744       1.90086548
