24
Properties=species:S:1:pos:R:3 pbc="F F F"
C       -1.28856749      -1.70142240      -1.98082708
C       -2.20556749      -2.34542240      -3.01582708
H       -1.36656749      -2.23442240      -1.03182708
H       -0.25456749      -1.75142240      -2.32182708
H       -1.56856749      -0.65842240      -1.82582708
H       -2.12256749      -1.75442240      -3.92782708
H       -3.24764749      -2.29641740      -2.66702708
H       -1.89180749      -3.37052140      -3.26224708
C       -1.13856749       1.48957760       2.92617292
C        0.45843251       1.31757760      -0.50582708
C       -0.29656749       1.72457760       0.58517292
C        1.22643251       0.16757760      -0.36682708
C       -0.31356749       0.97657760       1.77017292
C        1.24743251      -0.58442240       0.81817292
C        0.46543251      -0.17142240       1.90017292
O        2.02143251      -0.27542240      -1.36382708
H        0.43243251       1.88257760      -1.41982708
H       -0.90356749       2.61957760       0.51217292
H        2.49043251      -1.07042240      -1.09282708
H        1.85643251      -1.47442240       0.90717292
H       -1.47456749       0.66357760       3.55517292
H       -2.02056749       1.98057760       2.51617292
H        0.46243251      -0.73842240       2.82017292
H       -0.48982749       2.16934760       3.49805292
