16
Properties=species:S:1:pos:R:3 pbc="F F F"
C        0.10573940      -0.35702848      -2.78664391
C        0.84073940      -0.87502848      -1.56564391
O        2.08373940      -0.86602848      -1.47764391
N        0.06573940      -1.32302848      -0.59064391
H        0.48073940      -1.63502848       0.26835609
H       -0.94226060      -1.26402848      -0.71064391
H       -0.35426060       0.58997152      -2.51664391
H       -0.68126060      -1.06702848      -3.02964391
H        0.74550940      -0.21687848      -3.67041391
C       -0.48426060       0.23597152       2.77735609
C       -0.75826060       0.90197152       1.51135609
O       -1.85126060       0.58997152       1.02135609
O        0.06073940       1.72597152       1.05135609
H        0.55973940       0.29797152       3.00835609
H       -0.67026060      -0.83302848       2.63135609
H       -1.17787060       0.62098452       3.53937609
