24
Properties=species:S:1:pos:R:3 pbc="F F F"
C        2.80881870       1.69223256       0.92379235
C        0.00681870      -1.34276744      -0.37420765
C        0.46781870      -0.38276744      -1.28320765
C        0.46181870      -1.31076744       0.94779235
C        1.39381870       0.58623256      -0.86220765
C        1.36681870      -0.33376744       1.35879235
C        1.85681870       0.61423256       0.45779235
O       -0.89718130      -2.29976744      -0.76820765
H        0.12381870      -0.39176744      -2.30720765
H       -1.15418130      -2.19076744      -1.70320765
H        0.08281870      -2.02576744       1.65879235
H        1.73581870       1.32723256      -1.57420765
H        1.67481870      -0.30876744       2.39579235
H        3.03781870       1.56123256       1.98279235
H        2.26881870       2.63523256       0.83879235
H        3.74577870       1.77845256       0.35400235
C       -3.24218130       0.57223256      -0.06820765
C       -3.24818130       2.09723256      -0.16020765
H       -2.53818130       0.22023256       0.68279235
H       -4.24018130       0.23623256       0.21179235
H       -2.98418130       0.14223256      -1.03620765
H       -3.49718130       2.50823256       0.81879235
H       -4.04418130       2.38423256      -0.84020765
H       -2.28205130       2.50545256      -0.49179765
