19
Properties=species:S:1:pos:R:3 pbc="F F F"
C       -1.11929379       0.43156756      -0.36410612
C       -0.73729379       1.86756756      -0.71210612
C       -1.97729379      -0.20043244      -1.46010612
H       -0.20729379      -0.14543244      -0.26710612
H       -1.65129379       0.43956756       0.58689388
H       -1.63429379       2.48456756      -0.76910612
H       -0.27629379       1.85756756      -1.70010612
H       -2.91529379       0.34156756      -1.57210612
H       -1.43429379      -0.15543244      -2.40410612
H       -0.01549379       2.31330056      -0.01187612
H       -2.17935279      -1.25907744      -1.24000612
C        1.67470621      -0.51243244       1.77689388
C        2.08470621      -1.55243244       0.74089388
H        1.96870621       0.48356756       1.47689388
H        0.59970621      -0.55743244       1.95089388
H        2.18070621      -0.71143244       2.71989388
H        1.30870621      -1.63743244      -0.01710612
H        2.10970621      -2.51843244       1.24089388
H        3.03342621      -1.33866644       0.22685388
