23
Properties=species:S:1:pos:R:3 pbc="F F F"
C        0.23293506      -0.15260448       1.12834984
C        1.10693506      -0.71660448       2.23634984
C       -1.15906494       0.10439552       1.60834984
O       -1.89306494      -0.82160448       1.95134984
N       -1.54906494       1.36039552       1.61834984
H        0.67493506       0.75439552       0.71334984
H        0.15093506      -0.88960448       0.33034984
H        0.52993506      -1.46860448       2.78134984
H       -2.46606494       1.59539552       1.95334984
H       -0.90106494       2.09139552       1.34434984
H        1.39218506       0.08920552       2.92866984
H        1.97363506      -1.24170448       1.80843984
C        0.88293506       0.33839552      -2.41165016
C        0.45093506       0.53439552      -3.87065016
C        1.95593506      -0.69660448      -2.23565016
H        1.22793506       1.27739552      -1.98765016
H        0.03093506       0.01539552      -1.82065016
H        0.13793506      -0.42760448      -4.28265016
H        2.92093506      -0.24860448      -2.46765016
H        1.96393506      -1.05460448      -1.20865016
H        1.76293506      -1.50460448      -2.93665016
H       -0.41544494       1.21199552      -3.85485916
H        1.23399506       0.95073552      -4.52140316
