16
Properties=species:S:1:pos:R:3 pbc="F F F"
C        0.68710001      -0.31989444      -0.45222835
C        1.92610001       0.52810556      -0.71422835
C       -0.25089999      -0.36289444      -1.65122835
O       -0.44489999      -1.47389444      -2.19822835
O       -0.78989999       0.70310556      -2.03122835
H        0.98910001      -1.33289444      -0.17622835
H        0.13410001       0.11810556       0.36477165
H        2.38410001       0.19810556      -1.64622835
H        2.63705501       0.44121556       0.12063365
H        1.65975861       1.59202556      -0.79867835
C       -0.68189999       0.82610556       3.81077165
O       -0.31289999       0.05210556       2.67777165
H       -0.93289999      -0.68389444       2.60777165
H       -0.60789999       0.21010556       4.70777165
H       -0.00270549       1.68555556       3.91099265
H       -1.71857699       1.17818556       3.70427865
