24
Properties=species:S:1:pos:R:3 pbc="F F F"
C       -2.36112897       0.55582727       2.97767522
C       -0.87912897      -0.22017273      -0.97132478
C       -0.60512897      -1.10317273       0.06867522
C       -1.63812897       0.88082727      -0.74232478
C       -1.08412897      -0.86417273       1.33567522
C       -2.13412897       1.12382727       0.52767522
C       -1.84312897       0.26482727       1.58467522
H       -0.49312897      -0.41317273      -1.96232478
H       -0.00312897      -1.97517273      -0.12232478
H       -1.87812897       1.54482727      -1.55532478
H       -0.85712897      -1.55617273       2.13567522
H       -2.74412897       1.99782727       0.69367522
H       -2.35112897       1.63282727       3.14467522
H       -1.68212897       0.10882727       3.70367522
H       -3.37323897       0.16471827       3.15840922
C        2.69787103       0.00882727      -1.01632478
C        4.15687103       0.45382727      -1.26532478
O        2.30087103      -0.94417273      -2.01432478
H        2.60287103      -0.42717273      -0.02132478
H        2.03987103       0.87682727      -1.08232478
H        4.20287103       0.75082727      -2.31332478
H        2.71787103      -1.78417273      -1.77232478
H        4.83546103      -0.39951773      -1.11931778
H        4.43447103       1.35208227      -0.69429578
