19
Properties=species:S:1:pos:R:3 pbc="F F F"
C       -3.02821574      -1.14003841       2.50279532
C       -1.89021574      -1.06203841       1.49879532
O       -0.69621574      -1.11903841       1.87179532
O       -2.17721574      -0.87903841       0.29579532
H       -3.65721574      -2.00603841       2.29179532
H       -3.63921574      -0.24303841       2.38679532
H       -2.66758974      -1.18888841       3.54085232
C        3.52478426       1.35496159      -0.91620468
C        1.37178426       0.05596159      -0.23520468
C        2.08778426       0.92296159      -1.00120468
C        0.04178426       0.82396159      -1.80820468
N        0.09878426       0.02196159      -0.75920468
N        1.23978426       1.37296159      -1.99520468
H        1.72778426      -0.48303841       0.63379532
H       -0.69221574      -0.45903841      -0.33420468
H        4.02078426       0.96896159      -1.80720468
H        3.98778426       0.89596159      -0.04220468
H       -0.84421574       1.00996159      -2.40720468
H        3.65601426       2.44642159      -0.87748068
