20
Properties=species:S:1:pos:R:3 pbc="F F F"
C        0.56544311      -1.98501158       1.56398577
C       -0.73755689      -1.98701158       2.35798577
H        1.41644311      -2.22601158       2.19898577
H        0.49844311      -2.74501158       0.78998577
H        0.73744311      -1.01901158       1.09898577
H       -1.56055689      -1.88101158       1.65598577
H       -0.75897689      -1.13157158       3.04919577
H       -0.85335689      -2.93862158       2.89744577
C       -0.70855689      -0.61001158      -2.30701423
C       -0.91255689       0.75998842      -0.12701423
C       -0.25155689       0.31398842      -1.22501423
C        1.13144311       1.57198842      -0.06901423
N       -0.02755689       1.54598842       0.57898577
N        1.02544311       0.83598842      -1.17001423
H       -1.92855689       0.50798842       0.14998577
H       -0.18055689       1.95898842       1.49098577
H       -1.26255689      -1.42701158      -1.85901423
H        0.18744311      -1.03201158      -2.76201423
H        2.03944311       2.04398842       0.28498577
H       -1.31803689      -0.14068158      -3.09330423
