25
Properties=species:S:1:pos:R:3 pbc="F F F"
C        1.22907987       2.66888519      -0.62010034
C       -1.22192013      -0.15311481      -1.46210034
C       -0.70392013       1.07888519      -1.03610034
C       -0.35792013      -1.15611481      -1.91010034
C        0.67507987       1.32288519      -1.05110034
C        1.02007987      -0.92811481      -1.92810034
C        1.53107987       0.30588519      -1.49710034
O       -0.85592013      -2.34911481      -2.34510034
H       -2.28692013      -0.33111481      -1.44910034
H       -1.38092013       1.85188519      -0.69410034
H       -1.81292013      -2.43411481      -2.14110034
H        1.68107987      -1.70211481      -2.28910034
H        2.23707987       2.51388519      -0.23410034
H        0.63607987       3.04688519       0.21389966
H        2.60107987       0.46688519      -1.50610034
H        1.27761987       3.41760519      -1.42450034
C       -0.32992013      -1.43711481       1.92689966
C        0.86107987       0.83688519       2.89989966
S       -0.76892013       0.07788519       2.78189966
H        0.36107987      -2.01811481       2.53789966
H       -1.22992013      -2.02511481       1.73989966
H        0.14407987      -1.19611481       0.97489966
H        1.07707987       1.36388519       1.97089966
H        1.61407987       0.05988519       3.03889966
H        0.91781987       1.54029519       3.74369966
