12
Properties=species:S:1:pos:R:3 pbc="F F F"
C        0.47424658      -2.21154067      -1.07841784
O       -0.08075342      -0.91154067      -1.02041784
H       -1.04175342      -1.00454067      -0.92641784
H        0.41524658      -2.57354067      -2.10641784
H       -0.09775342      -2.88854067      -0.44241784
H        1.52489758      -2.20866367      -0.75265084
C        0.45524658       1.94445933       0.97458216
O       -0.76675342       1.21545933       1.06658216
H       -0.73375342       0.67045933       1.86258216
H        1.28124658       1.23545933       0.91058216
H        0.44244458       2.57818133       0.07556416
H        0.58553558       2.54983593       1.88372716
