27
Properties=species:S:1:pos:R:3 pbc="F F F"
C       -1.52905075       3.02250538       1.52469317
C       -0.90105075      -0.13249462      -0.41430683
C       -0.47105075       1.13850538       0.04869317
C       -1.53505075       1.69250538       0.83669317
C       -2.53805075       0.77250538       0.82169317
C       -0.10705075      -0.93949462      -1.21530683
C        1.14794925      -0.46949462      -1.56130683
C        1.60394925       0.77650538      -1.11330683
C        0.80494925       1.58650538      -0.31230683
N       -2.16505075      -0.32249462       0.07469317
H       -0.48905075      -1.87649462      -1.60330683
H        1.75594925      -1.03149462      -2.26230683
H       -2.76305075      -1.12349462      -0.09230683
H        2.58194925       1.12350538      -1.41730683
H       -3.49205075       0.88250538       1.32069317
H        1.15994925       2.54550538       0.03669317
H       -1.27305075       3.79850538       0.80269317
H       -0.73905075       2.99250538       2.27769317
H       -2.47699075       3.28522538       2.01702317
C        3.08294925      -3.05649462       0.90869317
N        1.88294925      -2.91049462       0.04469317
H        1.93394925      -3.51949462      -0.76730683
H        1.04194925      -3.18049462       0.54369317
H        1.76294925      -1.95049462      -0.25330683
H        3.00994925      -3.98849462       1.48069317
H        3.16794925      -2.23649462       1.62669317
H        3.99954625      -3.11808462       0.30366717
