38
Properties=species:S:1:pos:R:3 pbc="F F F"
C        4.25467074      -1.22123021      -1.37060530
C        1.75467074      -1.82723021      -1.86360530
C        3.03067074      -1.27723021      -2.22560530
C        0.89067074      -1.66823021      -2.97460530
C        2.90367074      -0.82123021      -3.49160530
C       -0.06032926      -2.87523021      -0.69560530
C       -0.88532926      -2.71123021      -1.81160530
C        1.24867074      -2.42923021      -0.70560530
C       -0.42632926      -2.09623021      -2.95860530
N        1.61767074      -1.05523021      -3.95460530
H       -0.45732926      -3.35623021       0.19039470
H       -1.90732926      -3.06523021      -1.77160530
H        1.87767074      -2.54123021       0.16639470
H       -1.06632926      -1.96223021      -3.81960530
H        5.13067074      -1.27923021      -2.01460530
H        4.25767074      -2.09223021      -0.71460530
H        3.69367074      -0.35223021      -4.06960530
H        1.29167074      -0.81323021      -4.88360530
H        4.32432074      -0.30495021      -0.76597530
C       -2.65332926       3.87776979       3.99539470
C       -1.68232926       0.93076979       1.87039470
C       -1.37932926       2.21476979       2.37639470
C       -2.48132926       2.60076979       3.23439470
C       -3.37432926       1.58876979       3.19339470
C       -0.81332926       0.22876979       1.04439470
C        0.37467074       0.81576979       0.67439470
C        0.70267074       2.09076979       1.14239470
C       -0.15432926       2.79276979       2.00339470
N       -2.90232926       0.58176979       2.38939470
H       -1.08332926      -0.74923021       0.67739470
H        1.04767074       0.29576979       0.00739470
H       -3.40632926      -0.27723021       2.20139470
H        1.62667074       2.54576979       0.83439470
H       -4.31432926       1.57176979       3.73439470
H        0.10967074       3.77076979       2.36939470
H       -3.64232926       3.88276979       4.45239470
H       -2.63732926       4.68576979       3.26939470
H       -1.88911926       4.07151979       4.76249470
