24
Properties=species:S:1:pos:R:3 pbc="F F F"
C       -0.12940902       2.00093631      -2.22735252
C        0.48659098       2.12293631      -3.63435252
H       -0.85540902       2.79893631      -2.05835252
H       -0.62540902       1.03993631      -2.10135252
H        0.64059098       2.04593631      -1.45635252
H        1.25259098       1.35193631      -3.74035252
H        0.95294098       3.10983631      -3.77055052
H       -0.28422902       1.97205631      -4.40446152
C       -1.86040902       0.03993631       3.05164748
C        0.79059098      -0.86506369      -0.24035252
C        1.20959098      -0.03806369       0.79964748
C       -0.49440902      -1.40606369      -0.21335252
C        0.34459098       0.25593631       1.85264748
C       -1.35240902      -1.11206369       0.85464748
C       -0.94340902      -0.27006369       1.89064748
O        1.64759098      -1.15306369      -1.26735252
H        2.20759098       0.37893631       0.79364748
H        2.46759098      -0.65106369      -1.20335252
H       -0.81640902      -2.05106369      -1.01635252
H        0.69159098       0.89193631       2.65764748
H       -2.33940902      -1.55006369       0.87464748
H       -1.24740902       0.04593631       3.94764748
H       -2.58640902      -0.76506369       3.16064748
H       -2.38896502       1.00356631       3.00634748
