24
Properties=species:S:1:pos:R:3 pbc="F F F"
C       -0.56723066      -2.82820326      -0.99904151
C       -1.00723066      -0.68320326       0.33895849
C       -0.75123066      -2.05820326       0.28695849
C       -1.15323066      -0.04020326       1.57595849
C       -1.02323066      -0.76120326       2.76295849
C       -0.61323066      -2.75920326       1.48595849
C       -0.75423066      -2.12320326       2.71395849
H       -1.06923066      -0.09520326      -0.54904151
H       -1.35923066       1.02079674       1.61295849
H       -1.17723066      -3.73120326      -0.94404151
H        0.47576934      -3.13320326      -1.03604151
H       -1.13623066      -0.26320326       3.71695849
H       -0.40723066      -3.82020326       1.46395849
H       -0.67923066      -2.69620326       3.62395849
H       -0.79174726      -2.30098326      -1.93799151
C        0.57276934       1.89479674      -1.69104151
C        0.34676934       2.06379674      -3.20304151
S        1.94876934       2.84079674      -0.99804151
H       -0.34423066       2.15079674      -1.16104151
H        0.77376934       0.83979674      -1.50604151
H       -0.30823066       1.27179674      -3.55704151
H        1.88676934       2.31279674       0.22895849
H        1.28794634       1.99466674      -3.76820151
H       -0.14985916       3.01924674      -3.42772151
