20
Properties=species:S:1:pos:R:3 pbc="F F F"
C       -1.33721853      -1.82740216      -1.71255872
C       -1.66021853       0.57759784      -1.26455872
N       -0.48621853       0.65859784      -0.67555872
N       -2.09121853      -0.57340216      -1.75955872
N       -2.40921853       1.65859784      -1.35155872
H       -0.03221853      -0.16940216      -0.29955872
H       -0.16921853       1.53759784      -0.30655872
H       -2.97121853      -0.57040216      -2.25655872
H       -3.37921853       1.56459784      -1.60055872
H       -2.08421853       2.53059784      -0.96355872
H       -2.03921853      -2.66340216      -1.68355872
H       -0.73921853      -1.87740216      -0.80255872
H       -0.69584853      -1.94126216      -2.59894872
C        3.05278147      -0.93040216       2.30044128
C        1.94278147      -0.08940216       1.64444128
O        0.88178147      -0.65340216       1.27644128
O        2.11578147       1.14359784       1.50844128
H        3.31378147      -0.50440216       3.27244128
H        3.94378147      -0.89440216       1.67444128
H        2.76014147      -1.98006216       2.45070128
