19
Properties=species:S:1:pos:R:3 pbc="F F F"
C       -1.39459668      -0.25214058       1.87622870
C       -2.36259668       0.76585942       2.50722870
H       -1.58659668      -1.26614058       2.22822870
H       -1.53959668      -0.25414058       0.79722870
H       -0.36459668       0.02485942       2.10022870
H       -3.36659668       0.53185942       2.17422870
H       -2.35257268       0.69354942       3.60480370
H       -2.12958668       1.78779942       2.17353470
C        1.01840332      -0.28314058      -1.01177130
C        1.08740332      -1.30514058      -2.15477130
C        1.72040332       1.05685942      -1.28377130
H       -0.03359668      -0.08214058      -0.81577130
H        1.44640332      -0.72614058      -0.10977130
H        2.12640332      -1.39414058      -2.46877130
H        1.38040332       1.46585942      -2.23377130
H        0.49536632      -0.96694058      -3.01797060
H        0.79882932      -2.31084058      -1.81523030
H        1.49194032       1.78285942      -0.48959130
H        2.81141732       0.92463942      -1.33073530
