17
Properties=species:S:1:pos:R:3 pbc="F F F"
C        1.72564538       0.67502697      -1.99838672
O        1.16264538      -0.16897303      -1.01538672
H        0.78764538      -0.89797303      -1.55938672
H        0.92964538       1.10502697      -2.60938672
H        2.36764538       0.07902697      -2.64738672
H        2.32773538       1.47996697      -1.55167672
C       -0.54235462      -0.00497303       1.39761328
C       -1.58635462       1.04502697       1.02361328
N       -0.83935462      -1.33897303       0.79761328
H        0.44164538       0.34202697       1.06961328
H       -0.51035462      -0.09597303       2.48861328
H       -1.39135462       1.97302697       1.54961328
H       -2.56635462       0.70002697       1.36161328
H       -1.00935462      -1.30197303      -0.21138672
H       -0.07235462      -1.98297303       0.95261328
H       -1.66435462      -1.75197303       1.21561328
H       -1.62741462       1.20350697      -0.06413672
