16
Properties=species:S:1:pos:R:3 pbc="F F F"
C       -1.39211834       0.93634786       0.40499356
C       -1.66611834       0.96434786       1.90299356
H       -1.40611834      -0.08665214       0.03199356
H       -2.16411834       1.49834786      -0.12000644
H       -0.42311834       1.38934786       0.19499356
H       -2.64111834       0.51034786       2.08399356
H       -1.71311834       2.01134786       2.19399356
H       -0.91074444       0.44265786       2.50900756
C        1.93188166      -0.64365214      -0.58100644
C        1.13388166      -1.26465214      -1.72700644
H        2.99788166      -0.77365214      -0.75800644
H        1.70288166       0.42134786      -0.50800644
H        1.67988166      -1.10165214       0.37299356
H        0.07688166      -1.20265214      -1.47800644
H        1.41022466      -2.32004114      -1.86767744
H        1.30089966      -0.69808614      -2.65496544
