18
Properties=species:S:1:pos:R:3 pbc="F F F"
C       -1.85067289       0.50066436      -0.40791844
C       -2.53067289       1.80766436      -0.71791844
C       -2.25167289      -0.02833564       0.96308156
H       -2.13267289      -0.22233564      -1.17591844
H       -0.77367289       0.65966436      -0.43791844
H       -2.34167289       2.52166436       0.07908156
H       -3.59967289       1.63866436      -0.81991844
H       -3.30867289      -0.31033564       0.92508156
H       -1.65167289      -0.91933564       1.16908156
H       -2.10466289       2.17951436      -1.66144844
H       -2.09468289       0.71681436       1.75687156
C        2.05732711       0.12166436       1.24108156
C        1.63432711      -0.60933564      -0.03991844
O        1.95532711      -0.12633564      -1.15391844
O        0.98032711      -1.67133564       0.08908156
H        2.36432711      -0.60533564       1.99208156
H        1.21032711       0.69166436       1.62608156
H        2.88629711       0.82531436       1.07471156
