16
Properties=species:S:1:pos:R:3 pbc="F F F"
C        1.31814573      -0.27059716       1.27584758
C        2.40814573       0.31640284       2.17584758
H        0.43414573       0.36940284       1.28884758
H        1.67714573      -0.35959716       0.25184758
H        1.03714573      -1.26959716       1.61184758
H        3.27414573      -0.33959716       2.14284758
H        2.04500973       0.36429284       3.21307358
H        2.72125873       1.30661284       1.81329558
C       -1.20585427       0.08540284      -1.35115242
C       -2.52185427      -0.12159716      -2.10115242
H       -1.37985427       0.50440284      -0.36115242
H       -0.70785427      -0.87659716      -1.22815242
H       -0.55585427       0.75640284      -1.91615242
H       -3.10485427      -0.85759716      -1.54815242
H       -3.09608927       0.81501284      -2.15607942
H       -2.32745927      -0.52766716      -3.10480542
