16
Properties=species:S:1:pos:R:3 pbc="F F F"
C       -1.54669433       0.87188543       0.60269997
C       -1.77969433      -0.02011457       1.78969997
H       -1.09869433       0.30888543      -0.21430003
H       -2.49869433       1.28688543       0.26969997
H       -0.89669433       1.70288543       0.87769997
H       -2.27469433       0.54888543       2.57269997
H       -0.80032433      -0.39252457       2.12457697
H       -2.41710433      -0.87238457       1.51159697
C        1.93630567       0.10788543      -0.73730003
C        1.39530567      -0.95911457      -1.66030003
H        1.28730567       0.98188543      -0.73230003
H        1.99630567      -0.28511457       0.27769997
H        2.93630567       0.40088543      -1.06230003
H        0.40330567      -1.18011457      -1.28630003
H        1.32465567      -0.61739457      -2.70348503
H        1.97609567      -1.88923457      -1.57332603
