26
Properties=species:S:1:pos:R:3 pbc="F F F"
C        0.23614882      -1.46920190      -4.07615578
C        0.85814882      -0.09020190      -3.95215578
O        0.46714882       0.83179810      -4.70415578
O        1.75014882       0.05879810      -3.06815578
H       -0.39885118      -1.61820190      -3.19815578
H        0.99914882      -2.23920190      -4.01315578
H       -0.41211118      -1.59134190      -4.95640478
C       -1.73285118      -1.79820190       3.58484422
C        0.31714882       0.73379810       1.79384422
C       -0.68985118      -0.25720190       1.77684422
C       -0.78785118      -0.77320190       3.10384422
C        0.13814882      -0.10720190       3.84284422
C       -0.00485118       1.16179810      -0.49315578
C        0.65714882       1.45479810       0.67284422
C       -1.00885118       0.18779810      -0.53915578
C       -1.35185118      -0.52820190       0.58084422
N        0.77814882       0.81979810       3.07584422
H        0.24414882       1.70379810      -1.39615578
H        1.42214882       2.21779810       0.70884422
H       -1.50785118      -0.01220190      -1.47815578
H       -2.12185118      -1.28220190       0.54984422
H        1.50514882       1.44179810       3.41384422
H        0.31714882      -0.27420190       4.89884422
H       -1.29985118      -2.35520190       4.41484422
H       -1.92985118      -2.50020190       2.77284422
H       -2.67517118      -1.32057190       3.89127422
