24
Properties=species:S:1:pos:R:3 pbc="F F F"
C       -1.57600327      -1.06207020       2.27772233
C       -0.99500327      -0.36207020       3.50372233
H       -2.48900327      -1.60007020       2.53072233
H       -1.76900327      -0.32007020       1.51172233
H       -0.84900327      -1.75907020       1.86072233
H       -0.22900327       0.33592980       3.16872233
H       -0.52748827      -1.10260220       4.16933233
H       -1.77539927       0.19576880       4.04205233
C       -1.38500327       0.35992980      -3.17927767
C        0.41699673       1.25592980       0.07972233
C       -0.41100327       1.33292980      -1.04027767
C        1.17499673       0.10892980       0.30272233
C       -0.50200327       0.26692980      -1.94327767
C        1.10499673      -0.95307020      -0.59127767
C        0.27699673      -0.86607020      -1.71427767
O        1.98999673       0.02992980       1.39072233
H        0.46699673       2.08592980       0.77072233
H       -0.98400327       2.23392980      -1.20727767
H        1.94699673       0.85092980       1.91372233
H        1.69799673      -1.83907020      -0.41827767
H       -1.38000327      -0.59407020      -3.70927767
H       -0.92100327       1.09692980      -3.83627767
H        0.23399673      -1.69507020      -2.40727767
H       -2.42679727       0.66600180      -3.00324767
