30
Properties=species:S:1:pos:R:3 pbc="F F F"
C        1.73527451       2.03657514       0.09091955
C        2.92827451       2.31557514       0.99991955
C        0.79927451       3.23257514      -0.08108045
H        2.09527451       1.72657514      -0.89008045
H        1.16227451       1.20657514       0.50291955
H        2.59727451       2.80357514       1.91691955
H        1.37627451       4.14257514      -0.24508045
H        0.16327451       3.06457514      -0.95108045
H        3.65146451       2.96117514       0.48011955
H        3.39364451       1.36829914       1.30991955
H        0.15790451       3.34643514       0.80530955
C       -2.22572549       0.21857514      -2.35908045
C       -0.60672549      -0.77542486      -0.56708045
C       -1.84972549      -0.16642486      -0.96808045
C       -0.67172549      -0.98442486       0.83591955
C       -2.59272549      -0.03242486       0.16291955
C        0.55127451      -1.17642486      -1.25408045
C        0.37627451      -1.56342486       1.55391955
C        1.60427451      -1.75342486      -0.53608045
C        1.51127451      -1.94542486       0.85491955
N       -1.89272549      -0.51642486       1.24491955
H        0.62927451      -1.02842486      -2.32108045
H       -2.21772549      -0.66842486      -2.98208045
H       -1.41772549       0.85857514      -2.70708045
H       -3.59472549       0.38257514       0.20891955
H       -2.24672549      -0.52142486       2.19591955
H        0.29827451      -1.71342486       2.62091955
H        2.50427451      -2.05342486      -1.05708045
H        2.33027451      -2.40442486       1.38991955
H       -3.16162549       0.78384914      -2.47975045
