16
Properties=species:S:1:pos:R:3 pbc="F F F"
C        1.59865817       0.90450275      -1.11128563
C        1.76665817      -0.53649725      -1.57128563
H        0.54465817       1.17650275      -1.12228563
H        1.98465817       1.01550275      -0.09828563
H        2.14465817       1.57450275      -1.77928563
H        1.25065817      -1.18949725      -0.87128563
H        1.31550817      -0.67667725      -2.56466563
H        2.83271317      -0.80641725      -1.54544163
C       -1.54434183      -0.27649725       0.59271437
C       -1.82934183      -0.09749725       2.08371437
H       -1.77634183       0.63850275       0.05071437
H       -0.48734183      -0.50049725       0.46771437
H       -2.12334183      -1.10049725       0.18171437
H       -1.17734183       0.70650275       2.42471437
H       -2.86002183       0.23223275       2.28112437
H       -1.54876283      -0.99879725       2.64846037
