22
Properties=species:S:1:pos:R:3 pbc="F F F"
C        0.01204475       0.09987558      -1.88440968
C        0.95904475       2.08687558      -0.76740968
N        0.43404475       1.74187558       0.40059032
N        0.80504475       1.32687558      -1.83840968
N        1.65204475       3.19887558      -0.87440968
H       -0.00995525       0.84187558       0.54359032
H        0.49104475       2.41787558       1.15859032
H        1.31504475       1.60487558      -2.68040968
H        2.07704475       3.44987558      -1.76940968
H        1.79804475       3.79187558      -0.06040968
H        0.18604475      -0.51112442      -1.00040968
H        0.30304475      -0.48512442      -2.75940968
H       -1.05089525       0.37015258      -1.96868968
C       -2.19895525      -2.61212442       1.83559032
C       -0.92995525      -2.05612442       1.22859032
O       -0.64195525      -0.86312442       1.31959032
N       -0.15795525      -2.91612442       0.58359032
H       -1.94395525      -3.39112442       2.55359032
H       -2.76195525      -3.05812442       1.02659032
H        0.72904475      -2.59812442       0.22559032
H       -0.39995525      -3.89612442       0.56859032
H       -2.81137525      -1.84045142       2.32494032
