18
Properties=species:S:1:pos:R:3 pbc="F F F"
C        1.61864866       2.28418257       1.35285099
C        2.29064866       3.23718257       2.34285099
H        2.25564866       1.42318257       1.16785099
H        1.44864866       2.76718257       0.39385099
H        0.65764866       1.95218257       1.74385099
H        3.30564866       3.43818257       1.99385099
H        2.34083566       2.75467057       3.33010099
H        1.74561266       4.19027857       2.41026099
C       -0.05335134      -0.67081743      -0.17114901
C        0.93464866      -0.19581743      -1.21714901
C       -1.28135134      -1.39381743      -0.68414901
O       -1.76835134      -1.23181743      -1.81414901
O       -1.83635134      -2.17881743       0.11985099
H        0.47664866      -1.31881743       0.53185099
H       -0.37535134       0.19418257       0.40485099
H        1.74964866       0.33118257      -0.72414901
H        0.42364866       0.52818257      -1.85214901
H        1.37028766      -0.98270803      -1.85040901
