27
Properties=species:S:1:pos:R:3 pbc="F F F"
C        3.35336501      -1.58240849      -0.14066383
C        4.28936501      -2.76540849       0.10133617
H        2.33536501      -1.84440849       0.14833617
H        3.68136501      -0.74440849       0.46133617
H        3.37636501      -1.27040849      -1.18166383
H        5.30636501      -2.49240849      -0.18666383
H        3.96070501      -3.63874649      -0.48112383
H        4.25229501      -3.01204049       1.17268617
C       -2.06663499       2.50159151       1.79933617
C       -0.02763499       0.26759151      -0.41266383
C       -1.25063499       0.64859151       0.19433617
C       -1.02363499       1.82459151       0.96033617
C        0.29936501       2.11359151       0.82533617
C        0.08336501      -0.84540849      -1.23566383
C       -1.06263499      -1.60140849      -1.45466383
C       -2.38463499      -0.14140849      -0.02366383
C       -2.27963499      -1.26340849      -0.84366383
N        0.89836501       1.18959151      -0.00966383
H        1.90636501       1.11159151      -0.10266383
H        1.02336501      -1.11340849      -1.68966383
H        0.82636501       2.92059151       1.31333617
H       -1.00963499      -2.48240849      -2.07566383
H       -3.31163499       0.10659151       0.46433617
H       -2.10363499       1.90859151       2.69533617
H       -3.02263499       2.40259151       1.28433617
H       -3.14763499      -1.88640849      -1.00666383
H       -1.89164499       3.55511651       2.06289617
