27
Properties=species:S:1:pos:R:3 pbc="F F F"
C       -1.29501313      -2.03581105       2.06549617
C       -1.22001313      -1.06781105       3.25349617
H       -2.17701313      -2.67381105       2.13949617
H       -1.34901313      -1.46981105       1.13549617
H       -0.40301313      -2.65481105       2.04149617
H       -0.34001313      -0.43981105       3.12749617
H       -1.12039313      -1.62566505       4.19629617
H       -2.11329313      -0.42605905       3.26786617
C        3.03398687      -0.83781105      -0.39350383
C       -0.30301313       0.92818895      -0.11550383
C        0.58598687       0.08418895      -0.84050383
C        1.79898687      -0.03081105      -0.06550383
C        1.60098687       0.72418895       1.05149617
C       -1.57501313       1.25618895      -0.57950383
C       -1.97601313       0.72918895      -1.79750383
C        0.15398687      -0.43781105      -2.07050383
C       -1.12501313      -0.10981105      -2.53950383
N        0.34898687       1.29518895       1.03149617
H       -0.01001313       1.90418895       1.75849617
H       -2.22801313       1.90018895      -0.00650383
H        2.32698687       0.86118895       1.84049617
H       -2.95901313       0.96618895      -2.18350383
H        0.77598687      -1.10681105      -2.63250383
H        2.72298687      -1.83281105      -0.71450383
H        3.59498687      -0.97981105       0.52849617
H       -1.46701313      -0.51281105      -3.48350383
H        3.71111687      -0.39950005      -1.14142083
