21
Properties=species:S:1:pos:R:3 pbc="F F F"
C        2.20171283       0.71657471       0.09916304
C        2.86471283      -0.59042529      -0.34683696
C        2.96271283       1.98457471      -0.17283696
H        1.23871283       0.78257471      -0.39283696
H        2.02971283       0.63557471       1.17616304
H        2.73571283      -0.68542529      -1.41583696
H        2.29471283      -1.39642529       0.11416304
H        3.98171283       1.91057471       0.21916304
H        3.00271283       2.16957471      -1.25183696
H        3.92990283      -0.67529529      -0.08575396
H        2.40659283       2.77581471       0.35125704
C       -1.20328717      -0.39742529       1.07616304
C       -2.39428717      -0.91942529       1.81916304
C       -1.43428717      -0.29342529      -0.41283696
O       -1.90228717      -1.27142529      -1.04783696
O       -1.12128717       0.78157471      -0.97183696
H       -0.93928717       0.58057471       1.48516304
H       -0.35828717      -1.05942529       1.25816304
H       -2.16828717      -0.94342529       2.88416304
H       -2.56928717      -1.94842529       1.50216304
H       -3.30895717      -0.33452529       1.64231704
