25
Properties=species:S:1:pos:R:3 pbc="F F F"
C        2.55731094      -0.90391156       1.26693514
C        1.23731094      -1.50191156       1.70893514
O        0.57531094      -1.04691156       2.63293514
N        0.86231094      -2.55491156       1.03293514
H        2.41231094      -0.47091156       0.27693514
H        3.28931094      -1.70791156       1.18693514
H       -0.06468906      -2.92791156       1.17493514
H        1.44131094      -2.87291156       0.26493514
H        2.94348094      -0.14162056       1.95960014
C       -1.25368906      -1.46591156      -2.72506486
C       -1.41768906       0.93008844       0.28693514
C       -0.44668906       1.89008844      -0.02306486
C       -1.69368906      -0.12891156      -0.59106486
C       -1.01968906      -0.25291156      -1.81406486
C        0.26231094       1.77308844      -1.23806486
C       -0.02568906       0.68608844      -2.11906486
O       -0.21168906       2.93008844       0.84693514
H       -1.94768906       1.01008844       1.22193514
H       -2.43668906      -0.86491156      -0.31706486
H        1.02231094       2.49808844      -1.49606486
H        0.46231094       3.53108844       0.50693514
H       -1.23668906      -1.16991156      -3.77506486
H       -2.23868906      -1.87591156      -2.49906486
H        0.52631094       0.59808844      -3.04606486
H       -0.47622906      -2.21560556      -2.51646486
