28
Properties=species:S:1:pos:R:3 pbc="F F F"
C       -0.15245823      -2.39864136      -1.44875860
C       -0.36645823      -2.03464136      -2.91975860
C        1.29454177      -2.70364136      -1.12875860
O        2.18554177      -1.89564136      -1.37575860
N        1.53654177      -3.87664136      -0.56675860
H       -0.45345823      -1.55664136      -0.83275860
H       -0.77945823      -3.24864136      -1.18175860
H        0.22054177      -1.14364136      -3.14475860
H        2.46854177      -4.06864136      -0.21675860
H        0.78654177      -4.52164136      -0.37775860
H       -1.42943023      -1.81145136      -3.09376860
H       -0.00271723      -2.83185136      -3.58470060
C        1.66154177       2.39035864       2.73024140
C       -1.06845823       0.43235864       0.94824140
C       -1.68245823       1.43735864       0.20124140
C        0.02254177       0.74635864       1.75424140
C        0.49554177       2.05935864       1.83824140
C       -1.22145823       2.75335864       0.27524140
C       -0.13645823       3.06035864       1.09524140
O       -2.74045823       1.15835864      -0.60475860
H       -1.45245823      -0.57464136       0.91224140
H        0.50454177      -0.03464136       2.32224140
H       -1.69145823       3.53235864      -0.30875860
H       -3.00645823       1.91135864      -1.13975860
H        1.98954177       1.48735864       3.24224140
H        1.31054177       3.08735864       3.49224140
H        0.21754177       4.08235864       1.15424140
H        2.51947677       2.83553864       2.20510740
