30
Properties=species:S:1:pos:R:3 pbc="F F F"
C       -0.40118122       2.73789817      -0.40743046
C        0.41381878       3.27189817       0.75956954
N        0.01981878       3.37589817      -1.68343046
H       -0.26318122       1.65289817      -0.46443046
H       -1.46018122       2.93989817      -0.22243046
H        0.35581878       4.36289817       0.77356954
H        1.45781878       2.97589817       0.63056954
H        1.00281878       3.22189817      -1.87143046
H       -0.50218122       3.00589817      -2.46943046
H       -0.14218122       4.37589817      -1.66043046
H        0.03889578       2.88396817       1.71818954
C       -2.35418122      -0.51810183      -0.47143046
C       -3.25918122      -1.75210183      -0.57043046
C       -0.92518122      -0.82310183      -0.07843046
C        0.03181878      -1.12510183      -1.04643046
C       -0.54018122      -0.79810183       1.26056954
C        1.34681878      -1.40110183      -0.68543046
C        0.77281878      -1.07410183       1.63056954
C        1.71681878      -1.37510183       0.65456954
O        3.00281878      -1.64510183       1.01456954
H       -2.35518122      -0.00910183      -1.43643046
H       -2.76118122       0.17889817       0.25656954
H       -2.91418122      -2.35810183      -1.41043046
H       -0.25118122      -1.14810183      -2.09243046
H       -1.26818122      -0.55010183       2.02056954
H        2.07881878      -1.63210183      -1.44843046
H        1.06681878      -1.05110183       2.67056954
H        3.57181878      -1.78510183       0.24856954
H       -4.30160802      -1.44995183      -0.74946046
H       -3.18569022      -2.37101183       0.33595954
