16
Properties=species:S:1:pos:R:3 pbc="F F F"
C        0.51619920       0.68504811       1.38835094
C       -0.28980080      -0.32495189       2.21035094
C        1.18319920       0.04404811       0.18235094
O        1.20119920      -1.20195189       0.09735094
O        1.67719920       0.79604811      -0.69064906
H       -0.15980080       1.46204811       1.02835094
H        1.27119920       1.17704811       2.00035094
H       -0.84680080      -0.95295189       1.51335094
H       -0.99361080       0.19666811       2.87560594
H        0.36498920      -0.96315189       2.82186994
C       -2.21580080      -0.20495189      -2.08664906
O       -1.65380080       0.24004811      -0.85664906
H       -2.37580080       0.29404811      -0.21664906
H       -3.05880080       0.43404811      -2.35464906
H       -1.45266080      -0.15244189      -2.87712906
H       -2.57910080      -1.23636189      -1.96746906
