16
Properties=species:S:1:pos:R:3 pbc="F F F"
C        1.08544687      -2.69368543       1.88539213
C        0.66544687      -1.49168543       1.00939213
O       -0.44655313      -1.48868543       0.46139213
N        1.53144687      -0.46368543       0.86739213
H        1.22144687       0.33731457       0.30939213
H        2.44144687      -0.48668543       1.30039213
H        1.91444687      -2.39868543       2.52939213
H        1.45544687      -3.47568543       1.22239213
H        0.27569687      -3.11057343       2.50224213
C       -1.72255313       1.58731457       0.03239213
C       -0.66455313       1.51531457      -1.09660787
O        0.54044687       1.47431457      -0.87160787
O       -1.03755313       1.50331457      -2.27360787
H       -2.38655313       0.72331457      -0.04060787
H       -2.32155313       2.48031457      -0.14660787
H       -1.32242313       1.64302957       1.05552213
