15
Properties=species:S:1:pos:R:3 pbc="F F F"
C       -1.23863400      -0.71183088       1.03895854
C       -1.05763400      -1.05183088      -0.42504146
O       -1.80963400      -1.84183088      -0.99504146
N       -0.04663400      -0.46083088      -1.04204146
H        0.13536600      -0.69083088      -2.00504146
H        0.57836600       0.15016912      -0.52204146
H       -0.70263400       0.20416912       1.27695854
H       -0.78263400      -1.51883088       1.61195854
H       -2.29530400      -0.59115088       1.31985854
C        2.09836600       2.55716912       0.65795854
O        1.66736600       1.20116912       0.62795854
H        1.68436600       0.85516912       1.54395854
H        2.32636600       2.85916912      -0.36504146
H        1.29729100       3.20514912       1.04315854
H        3.02305200       2.64403912       1.24735854
