16
Properties=species:S:1:pos:R:3 pbc="F F F"
C        0.59996633       0.91254298      -1.79705287
C        0.80896633      -0.55545702      -2.16405287
H        0.15096633       0.97654298      -0.80605287
H        1.57096633       1.40654298      -1.75905287
H       -0.03303367       1.46154298      -2.47805287
H        1.38996633      -0.98545702      -1.34705287
H        1.40196633      -0.68545702      -3.04105287
H       -0.12761367      -1.12401702      -2.26181287
C       -0.11103367      -0.54945702       1.68294713
C       -1.30703367       0.19354298       2.26994713
H        0.20996633      -1.35545702       2.33794713
H       -0.39803367      -0.98845702       0.72894713
H        0.71196633       0.14454298       1.51594713
H       -1.65603367       0.88754298       1.52894713
H       -1.00337367       0.76504298       3.15942713
H       -2.10886367      -0.51687702       2.51970713
