17
Properties=species:S:1:pos:R:3 pbc="F F F"
C        1.25354618      -0.44471841      -0.62726565
C        1.39854618      -1.87671841      -1.12726565
O        0.75754618       0.39128159      -1.65326565
H        0.56454618      -0.43571841       0.21573435
H        2.20154618      -0.04671841      -0.30026565
H        1.73554618      -2.49871841      -0.30026565
H        0.39054618       1.19528159      -1.24626565
H        2.13761618      -1.94425141      -1.93916565
H        0.43306618      -2.25586041      -1.49346565
C       -1.80845382       0.18928159       1.56273435
C       -1.61645382       1.65128159       1.93373435
H       -1.93645382       0.08228159       0.48373435
H       -0.94645382      -0.39471841       1.88873435
H       -2.69345382      -0.19871841       2.06573435
H       -1.40845382       1.68028159       2.99873435
H       -2.52219382       2.23805859       1.72083435
H       -0.77103382       2.09830359       1.39023435
