17
Properties=species:S:1:pos:R:3 pbc="F F F"
C        0.04776712       0.32560081      -0.81656667
C        0.91876712       0.32160081      -2.06856667
S       -1.41323288       1.39560081      -0.95156667
H       -0.28123288      -0.69739919      -0.62756667
H        0.65476712       0.65960081       0.02743333
H        0.33176712      -0.06239919      -2.90756667
H       -1.77723288       1.37260081       0.33643333
H        1.81711912      -0.29218919      -1.90660567
H        1.26368312       1.34110081      -2.29584767
C        1.60876712      -1.34639919       2.18443333
C        0.49976712      -2.30739919       2.64143333
H        2.06176712      -1.70239919       1.25743333
H        1.18776712      -0.35639919       2.01443333
H        2.37476712      -1.24139919       2.95443333
H        0.12276712      -1.94439919       3.59643333
H        0.87828912      -3.33154919       2.77498333
H       -0.32708688      -2.30739919       1.91596333
