16
Properties=species:S:1:pos:R:3 pbc="F F F"
C        1.20763241      -1.59673116      -0.38233771
C        2.59763241      -1.94673116       0.12566229
H        0.44763241      -2.09773116       0.21466229
H        1.05663241      -0.52073116      -0.29333771
H        1.10363241      -1.87773116      -1.43033771
H        3.28663241      -1.25373116      -0.34333771
H        2.86173241      -2.97387316      -0.16627771
H        2.64871241      -1.81938816       1.21707129
C       -1.44436759       1.15826884       0.09566229
C       -2.36036759       2.38226884       0.16966229
H       -1.02836759       0.93826884       1.07966229
H       -2.00536759       0.29326884      -0.26233771
H       -0.62636759       1.35726884      -0.59833771
H       -2.72836759       2.57726884      -0.84033771
H       -1.78886759       3.25420284       0.52054429
H       -3.23394759       2.15775684       0.79930329
