16
Properties=species:S:1:pos:R:3 pbc="F F F"
C        0.07086418      -0.36873949      -1.58094009
C        0.26086418       0.35126051      -2.92894009
H       -0.24513582      -1.39873949      -1.75294009
H        1.01686418      -0.37973949      -1.04294009
H       -0.67413582       0.15126051      -0.98294009
H        1.10486418      -0.11373949      -3.43594009
H       -0.63812582       0.32053251      -3.56209009
H        0.47972418       1.41303951      -2.74259009
C        0.58686418       0.03026051       2.14205991
C       -0.92913582      -0.01873949       2.36905991
H        1.02286418      -0.96773949       2.19105991
H        0.78886418       0.42626051       1.14805991
H        1.06786418       0.68526051       2.86905991
H       -1.36013582      -0.78373949       1.73205991
H       -1.06911582      -0.24186049       3.43705991
H       -1.36876582       0.96019751       2.12736991
