23
Properties=species:S:1:pos:R:3 pbc="F F F"
C        2.41799475      -1.20684423      -1.95466743
C        2.80199475      -1.58984423      -3.38766743
H        3.26299475      -1.33484423      -1.27766743
H        2.10699475      -0.16384423      -1.92266743
H        1.57799475      -1.80084423      -1.59766743
H        1.92199475      -1.42184423      -4.01166743
H        3.04546475      -2.65969823      -3.46596743
H        3.61469475      -0.96408423      -3.78506743
C       -2.52000525      -0.74884423       2.20133257
C        0.41299475       1.35915577      -0.14766743
C       -0.91100525       1.26015577      -0.58066743
C        0.79199475       0.77815577       1.05733257
C       -1.85500525       0.58415577       0.18333257
C       -0.16300525       0.09915577       1.82633257
C       -1.49300525       0.00515577       1.39733257
H        1.14099475       1.89215577      -0.74566743
H       -1.20500525       1.71915577      -1.51666743
H        1.81499475       0.85915577       1.40133257
H       -2.87800525       0.52415577      -0.16166743
H        0.13499475      -0.33784423       2.76933257
H       -3.50600525      -0.33084423       1.98833257
H       -2.33100525      -0.59584423       3.26533257
H       -2.54013525      -1.82418423       1.97063257
