37
Properties=species:S:1:pos:R:3 pbc="F F F"
C       -0.08750019      -0.87142203       3.97409814
C        1.02249981      -1.23242203       1.63409814
C        0.98149981      -0.69942203       2.96109814
C        2.24549981      -0.81142203       1.04709814
C        2.13749981       0.00357797       3.13009814
C        0.14249981      -2.03442203       0.92609814
C        0.49649981      -2.38742203      -0.36790186
C        1.69549981      -1.95442203      -0.93990186
C        2.59049981      -1.16242203      -0.24690186
N        2.89649981      -0.05942203       1.98709814
H       -0.77550019      -2.34642203       1.38109814
H       -0.16550019      -3.01042203      -0.95690186
H        1.92949981      -2.24842203      -1.95590186
H        0.38449981      -0.85642203       4.95009814
H       -0.52650019      -1.85942203       3.84609814
H        2.42449981       0.52157797       4.04009814
H        3.80949981       0.36957797       1.88209814
H        3.52049981      -0.83442203      -0.69090186
H       -0.89454019      -0.12397203       3.97265814
C       -0.45050019       0.97657797      -1.43190186
C        0.58749981       1.23957797      -2.50390186
C       -1.40250019       2.41657797      -3.14990186
C       -3.10050019       0.49657797      -0.33390186
C       -2.93950019       1.39757797      -1.54490186
O       -3.89950019       1.91357797      -2.12590186
N       -1.66550019       1.59057797      -1.97190186
H       -0.58150019      -0.09842203      -1.31290186
H       -0.17250019       1.41157797      -0.48290186
H        0.65549981       0.35757797      -3.14390186
H        1.56449981       1.44257797      -2.06690186
H       -1.74750019       3.43957797      -2.98590186
H       -2.45450019       0.85457797       0.46009814
H       -2.76050019      -0.50242203      -0.60390186
H        0.22896981       2.08688797      -3.10682186
H       -0.31025019       2.40273797      -3.27951186
H       -1.90395019       1.97987797      -4.02617186
H       -4.13503019       0.44982797       0.03699814
