17
Properties=species:S:1:pos:R:3 pbc="F F F"
C       -1.16992877       0.58904182       0.99324852
C       -2.25492877       0.97704182       1.99624852
C        0.22607123       0.59404182       1.59524852
O        0.52707123       1.49104182       2.41724852
O        1.04407123      -0.27795818       1.23624852
H       -1.40192877      -0.39195818       0.58024852
H       -1.19792877       1.31704182       0.18124852
H       -2.02392877       1.97904182       2.35924852
H       -2.27380877       0.27935182       2.84646852
H       -3.21006877       1.03547182       1.45375852
C        0.29707123      -1.33695818      -3.39375148
C        0.40207123      -0.80795818      -1.96975148
O        0.38407123       0.42904182      -1.78375148
O        0.50607123      -1.63995818      -1.04675148
H       -0.51792877      -2.05895818      -3.45975148
H        1.23007123      -1.85195818      -3.63275148
H        0.11489123      -0.52365818      -4.11163148
