17
Properties=species:S:1:pos:R:3 pbc="F F F"
C        2.00200661       1.33133384      -1.75400402
C        1.32200661       1.68733384      -3.08400402
H        1.58600661       0.40333384      -1.35900402
H        3.07200661       1.20033384      -1.91700402
H        1.85800661       2.13933384      -1.03600402
H        1.75800661       2.62033384      -3.43700402
H        0.24588661       1.82492624      -2.90223402
H        1.49236661       0.91359584      -3.84709402
C       -0.61199339       0.76233384       1.04199598
C       -1.38599339      -1.67666616       2.19699598
S       -0.60999339      -1.00766616       0.71299598
H       -0.14299339       0.95633384       2.00499598
H       -0.05599339       1.27933384       0.26099598
H       -1.63599339       1.13733384       1.04899598
H       -0.78899339      -1.38266616       3.06199598
H       -1.36399339      -2.76566616       2.13399598
H       -2.42363339      -1.35172016       2.36348598
