16
Properties=species:S:1:pos:R:3 pbc="F F F"
C       -0.60216713       0.22477188       1.72145685
C       -0.93616713       0.30677188       3.20445685
H       -1.37016713      -0.34622812       1.19845685
H       -0.56416713       1.22777188       1.29945685
H        0.36683287      -0.25722812       1.58145685
H       -1.92116713       0.75977188       3.30745685
H       -0.94978713      -0.70863812       3.62724685
H       -0.20196713       0.93289188       3.73258685
C        0.32183287      -0.54822812      -1.90854315
C        1.21783287       0.01577188      -3.01854315
H       -0.20616713      -1.43622812      -2.25854315
H        0.92683287      -0.81422812      -1.04254315
H       -0.40916713       0.20277188      -1.60254315
H        1.79683287       0.83777188      -2.60554315
H        0.60755287       0.37937188      -3.85839315
H        1.90867287      -0.76692812      -3.36512315
