24
Properties=species:S:1:pos:R:3 pbc="F F F"
C        1.93501744      -1.43368502      -1.88864088
C        0.23901744      -0.00568502      -0.70964088
C        0.83701744      -1.25868502      -0.87164088
C       -0.77498256       0.18731498       0.22635912
C        0.39801744      -2.32568502      -0.07764088
C       -1.19998256      -0.88068502       1.01335912
C       -0.61698256      -2.14168502       0.86235912
O       -2.18298256      -0.68368502       1.93535912
H        0.56201744       0.82031498      -1.32864088
H       -1.22798256       1.15731498       0.34435912
H        2.65101744      -0.61968502      -1.76764088
H        1.48401744      -1.32768502      -2.87664088
H        0.81201744      -3.31668502      -0.17164088
H       -0.95498256      -2.97168502       1.46635912
H       -2.36298256      -1.47468502       2.45535912
H        2.47424744      -2.39174502      -1.85187088
C        1.31701744       3.43231498      -0.10064088
C        0.12101744       4.25431498      -0.55064088
H        1.02701744       2.71631498       0.66635912
H        1.71901744       2.88131498      -0.95064088
H        2.09901744       4.08531498       0.28735912
H       -0.66198256       3.58031498      -0.89564088
H       -0.24561256       4.86631498       0.28663912
H        0.40180744       4.89789498      -1.39738088
