28
Properties=species:S:1:pos:R:3 pbc="F F F"
C        1.45495422       2.86010611      -0.91464728
C        1.16895422       2.22210611       0.43035272
O        0.55795422       2.85210611       1.28235272
N        1.62695422       1.00710611       0.67235272
H        2.06295422       3.72210611      -0.73864728
H        0.51795422       3.18410611      -1.36964728
H        1.35395422       0.57310611       1.53935272
H        2.05395422       0.45710611      -0.04964728
H        1.99732022       2.21191211      -1.61869728
C       -3.22204578       0.15610611       0.37435272
C       -0.85704578      -0.94689389       0.16235272
C       -1.99504578      -0.24189389      -0.36464728
C        0.08495422      -1.09489389      -0.88464728
C       -1.68704578       0.02310611      -1.66664728
C       -0.54504578      -1.47789389       1.42235272
C        1.30095422      -1.73689389      -0.71364728
C        0.67095422      -2.12689389       1.59735272
C        1.58595422      -2.25189389       0.53835272
N       -0.46204578      -0.49789389      -1.99264728
H       -1.24204578      -1.37889389       2.23635272
H       -3.62104578       1.06010611      -0.08864728
H       -2.87404578       0.45110611       1.36535272
H       -2.33704578       0.55410611      -2.35464728
H       -0.05504578      -0.46189389      -2.92164728
H        1.99795422      -1.84189389      -1.53564728
H        0.91895422      -2.53989389       2.56835272
H        2.52595422      -2.76489389       0.70435272
H       -4.04094578      -0.57004849       0.48435272
