25
Properties=species:S:1:pos:R:3 pbc="F F F"
C        1.29504903       2.26024746      -0.15750003
C        1.59304903       3.38324746      -1.15250003
C        2.52804903       1.42124746       0.16649997
O        3.24304903       1.01924746      -0.78350003
O        2.76604903       1.16024746       1.37249997
H        0.89004903       2.69024746       0.76049997
H        0.53104903       1.61224746      -0.58750003
H        1.97104903       2.93624746      -2.07250003
H        2.35448103       4.06543746      -0.74650003
H        0.67183803       3.94044746      -1.37811703
C       -4.07095097      -2.09375254      -0.62050003
C       -0.11095097      -0.98775254       0.62849997
C       -0.28595097      -1.83575254      -0.46350003
C       -1.21995097      -0.49275254       1.31149997
C       -1.57195097      -2.19675254      -0.86450003
C       -2.50595097      -0.85875254       0.90849997
C       -2.68795097      -1.71575254      -0.17650003
H        0.88604903      -0.71975254       0.94849997
H        0.57504903      -2.19775254      -1.00250003
H       -1.08295097       0.16724746       2.15849997
H       -1.70095097      -2.85175254      -1.71550003
H       -3.36195097      -0.47275254       1.44549997
H       -4.78595097      -1.87275254       0.17449997
H       -4.08195097      -3.17175254      -0.78650003
H       -4.38568097      -1.58285254      -1.54241603
