16
Properties=species:S:1:pos:R:3 pbc="F F F"
C        0.52641483      -3.02996936      -1.62759579
C        0.24941483      -1.89896936      -0.65659579
O       -0.89258517      -1.59596936      -0.33859579
N        1.28341483      -1.27496936      -0.16059579
H        1.09441483      -0.51996936       0.49440421
H        2.21741483      -1.55796936      -0.39659579
H        0.51141483      -3.95796936      -1.05559579
H        1.52541483      -2.92996936      -2.05359579
H       -0.22100117      -3.10614936      -2.43106779
C        0.40241483       2.43303064      -0.42659579
C       -0.36258517       1.88903064       0.74740421
O        0.25241483       1.15603064       1.58340421
O       -1.53858517       2.28503064       0.84240421
H        1.35141483       1.90903064      -0.38659579
H        0.60641483       3.49103064      -0.25159579
H       -0.05747817       2.33473864      -1.42099879
