30
Properties=species:S:1:pos:R:3 pbc="F F F"
C       -0.35030226      -0.08655522       2.17838892
C       -1.47130226      -0.48355522       3.14638892
C       -0.74930226      -0.01855522       0.72038892
C       -1.21930226       1.17044478       0.16438892
C       -0.63430226      -1.14155522      -0.09761108
C       -1.58030226       1.23444478      -1.17861108
C       -0.99030226      -1.08555522      -1.44161108
C       -1.46630226       0.10344478      -1.98061108
O       -1.81930226       0.15744478      -3.29461108
H        0.05669774       0.87844478       2.48038892
H        0.45669774      -0.80755522       2.28638892
H       -1.03230226      -0.65055522       4.13038892
H       -1.30530226       2.05444478       0.78138892
H       -0.26930226      -2.06855522       0.32138892
H       -1.95030226       2.16044478      -1.59561108
H       -0.89430226      -1.95155522      -2.07661108
H       -2.12930226       1.03444478      -3.54261108
H       -1.96573326      -1.40815522       2.81374492
H       -2.20583626       0.32719478       3.26106892
C        2.91269774       0.29144478       1.05238892
C        2.93969774      -1.16155522       0.68738892
C        3.79269774       0.99344478       0.04538892
H        3.23069774       0.47944478       2.07138892
H        1.89869774       0.64744478       0.90738892
H        3.77869774      -1.65855522       1.17738892
H        2.00069774      -1.62855522       0.97338892
H        4.79069774       1.11444478       0.47138892
H        3.38269774       1.97144478      -0.20661108
H        3.10636574      -1.14053522      -0.39970808
H        3.82215574       0.34106478      -0.83978308
