29
Properties=species:S:1:pos:R:3 pbc="F F F"
C        0.39132186      -1.79234111       0.22997430
C       -0.13467814      -3.09434111      -0.24802570
C        0.16232186      -0.68534111      -0.72802570
C       -1.12367814      -0.18434111      -0.95402570
C        1.23032186      -0.14934111      -1.41402570
C       -1.33767814       0.86665889      -1.84202570
C        1.02032186       0.89965889      -2.30002570
C       -0.26567814       1.42065889      -2.49802570
H       -0.12267814      -1.54534111       1.15797430
H        1.45632186      -1.87934111       0.44797430
H       -1.19067814      -2.96334111      -0.48902570
H       -1.96767814      -0.61034111      -0.42902570
H        2.22732186      -0.53134111      -1.24902570
H       -2.33467814       1.25265889      -2.00402570
H        1.85832186       1.33865889      -2.82302570
H       -0.41467814       2.24665889      -3.17802570
H       -0.04394014      -3.84236041       0.55336930
H        0.37170086      -3.42255011      -1.16773170
C        0.52732186       0.68265889       2.83897430
C        0.46632186       1.86965889       1.89697430
N       -0.80167814       0.29465889       3.40697430
H        0.96832186      -0.16634111       2.30697430
H        1.21032186       0.93565889       3.65797430
H        0.13032186       2.75765889       2.43797430
H       -0.23867814       1.65665889       1.08997430
H       -1.47267814       0.06065889       2.68397430
H       -0.72067814      -0.50134111       4.02997430
H       -1.19967814       1.05465889       3.94897430
H        1.46772153       2.04739689       1.47791830
