13
Properties=species:S:1:pos:R:3 pbc="F F F"
C        1.04970297      -1.92601392      -1.60632942
C        0.57670297      -0.94201392      -0.56132942
O        0.53370297       0.26698608      -0.86532942
O        0.23070297      -1.37301392       0.56067058
H        1.36170297      -2.84801392      -1.11132942
H        1.91870297      -1.50501392      -2.11532942
H        0.27138297      -2.13965392      -2.35370942
C       -1.47029703       1.62498608       1.74067058
O       -0.77529703       2.07998608       0.58267058
H       -0.30129703       1.31498608       0.18567058
H       -1.91329703       0.65298608       1.51767058
H       -0.75843703       1.53135608       2.57403058
H       -2.26603703       2.34634608       1.97824058
