19
Properties=species:S:1:pos:R:3 pbc="F F F"
C        1.15015317      -1.05404072      -1.64245976
C        2.38515317      -0.88404072      -2.51845976
H        1.10615317      -2.05604072      -1.21945976
H        1.24315317      -0.33104072      -0.83645976
H        0.24715317      -0.84404072      -2.21645976
H        2.39415317       0.13295928      -2.90845976
H        2.38371317      -1.60151072      -3.35227076
H        3.28481317      -1.04790072      -1.90709476
C       -1.27784683       0.33395928       0.94354024
C       -0.95984683      -0.23004072       2.32954024
C       -1.37784683       1.85795928       0.94654024
H       -0.53184683       0.01395928       0.22954024
H       -2.23884683      -0.07804072       0.63054024
H       -1.00384683      -1.32004072       2.27754024
H       -1.74484683       0.09495928       3.01554024
H       -2.03184683       2.17895928       1.76054024
H       -0.38384683       2.28395928       1.09754024
H        0.01693317       0.06851928       2.73790724
H       -1.78494683       2.22174928      -0.00840876
