19
Properties=species:S:1:pos:R:3 pbc="F F F"
C        3.77210625       0.46742906      -1.49938560
C        0.20410625       0.06142906      -2.02138560
C        1.51310625       0.16742906      -0.25638560
C        2.29010625       0.27642906      -1.36438560
N        0.21610625       0.03442906      -0.69538560
N        1.45010625       0.20742906      -2.45938560
H       -0.60689375      -0.10557094      -0.10638560
H       -0.67789375      -0.03557094      -2.64238560
H        1.84510625       0.18342906       0.76961440
H        4.17610625      -0.38557094      -2.04538560
H        4.21910625       0.47242906      -0.50638560
H        4.03141625       1.39446906      -2.03169560
C       -3.29489375       0.42242906       2.52261440
C       -2.13589375      -0.31857094       1.86961440
O       -2.10689375      -0.41257094       0.62361440
O       -1.25789375      -0.81757094       2.60361440
H       -2.93389375       0.90942906       3.43161440
H       -4.06589375      -0.29157094       2.81061440
H       -3.72018375       1.19443906       1.86449440
