27
Properties=species:S:1:pos:R:3 pbc="F F F"
C        0.91275810       1.76746023      -1.89698121
C        1.24975810       1.83246023      -3.38198121
H        0.17475810       2.52146023      -1.62398121
H        0.50675810       0.78146023      -1.68098121
H        1.81575810       1.91246023      -1.30398121
H        1.97075810       1.04346023      -3.60398121
H        1.69181910       2.80614023      -3.63991121
H        0.34039910       1.66080023      -3.97662121
C        0.60875810      -2.99953977      -0.57698121
C       -1.03224190       0.13446023       0.68801879
C        0.11775810      -0.68453977       0.55401879
C       -0.27124190      -1.85053977      -0.19298121
C       -1.59324190      -1.70153977      -0.46898121
C       -1.00824190       1.34946023       1.35801879
C        0.19275810       1.75746023       1.90801879
C        1.32175810      -0.24853977       1.12101879
C        1.34675810       0.97046023       1.79401879
N       -2.05624190      -0.51553977       0.05301879
H       -3.03124190      -0.23953977       0.06201879
H       -1.89924190       1.95446023       1.44901879
H       -2.20024190      -2.43653977      -0.98698121
H        0.24375810       2.70046023       2.43801879
H        2.21575810      -0.85153977       1.03601879
H       -0.00324190      -3.83553977      -0.91298121
H        1.12575810      -3.31653977       0.33001879
H        2.27275810       1.31946023       2.23301879
H        1.36041910      -2.75377977      -1.34158121
