16
Properties=species:S:1:pos:R:3 pbc="F F F"
C       -1.79616347      -0.22732264       0.08815054
C       -3.06016347       0.20367736       0.86215054
H       -0.93416347      -0.18632264       0.75015054
H       -1.91116347      -1.25832264      -0.24084946
H       -1.63016347       0.41467736      -0.77784946
H       -3.21916347      -0.44332264       1.72315054
H       -2.93683947       1.24734736       1.18702054
H       -3.89930147       0.10528736       0.15776054
C        1.79683653      -0.32832264      -0.19984946
C        3.06183653       0.36067736      -0.74784946
H        1.71483653      -1.35032264      -0.57584946
H        1.80983653      -0.34932264       0.88715054
H        0.90983653       0.23267736      -0.48084946
H        3.11383653       1.39667736      -0.41684946
H        3.02099653       0.29941736      -1.84538246
H        3.93349653      -0.21224964      -0.39860946
