26
Properties=species:S:1:pos:R:3 pbc="F F F"
C        3.54860451      -1.65668809      -1.69710375
C       -0.40639549      -0.58668809      -0.39810375
C        0.28660451       0.22131191      -1.28210375
C        0.18160451      -1.74268809       0.07389625
C        1.55960451      -0.12768809      -1.70810375
C        1.46160451      -2.09768809      -0.34710375
C        2.16660451      -1.28368809      -1.23110375
H       -1.40439549      -0.32168809      -0.08010375
H       -0.17139549       1.12831191      -1.65210375
H       -0.37539549      -2.38368809       0.73589625
H        2.07860451       0.50831191      -2.41210375
H        1.90360451      -3.01568809       0.01389625
H        3.64060451      -1.42068809      -2.75810375
H        3.67260451      -2.73668809      -1.59910375
H        4.36204551      -1.16029809      -1.14763375
C       -2.46339549       1.76831191       1.67289625
C       -2.46339549       1.78531191       3.19689625
C       -3.18239549       3.00131191       1.10089625
H       -1.43539549       1.75431191       1.30889625
H       -2.98139549       0.87931191       1.31289625
H       -3.49039549       1.90831191       3.54489625
H       -1.89239549       2.65031191       3.53589625
H       -4.21139549       3.01331191       1.46689625
H       -2.67439549       3.90531191       1.44489625
H       -2.04460549       0.87972191       3.66006625
H       -3.18673549       2.97747191       0.00116625
