20
Properties=species:S:1:pos:R:3 pbc="F F F"
C        0.21058428      -0.92193656      -0.94749786
C        1.20258428      -1.68993656      -0.05349786
C        0.83458428       0.34006344      -1.52349786
O       -0.25841572      -1.74393656      -2.01649786
H       -0.64141572      -0.62493656      -0.33549786
H        1.52358428      -1.02093656       0.74650214
H        1.55758428       0.04106344      -2.26949786
H        0.06858428       0.96506344      -1.98549786
H        1.33058428       0.91206344      -0.73749786
H       -0.70641572      -1.13493656      -2.60449786
H        2.06953428      -2.06654156      -0.61609786
H        0.63934428      -2.51947956       0.39880214
C       -0.88041572       1.57006344       1.71050214
C       -1.03841572       2.46806344       2.94450214
H       -0.29641572       2.07506344       0.94050214
H       -0.35441572       0.66006344       1.99950214
H       -1.85841572       1.29606344       1.31150214
H       -0.04141572       2.68306344       3.32650214
H       -1.52399572       3.42511344       2.70310214
H       -1.58446572       1.94221444       3.74160214
