19
Properties=species:S:1:pos:R:3 pbc="F F F"
C        0.89699902      -0.51059248      -0.92516970
C        0.20099902      -1.14659248      -2.13016970
C        2.39699902      -0.37559248      -1.13216970
H        0.48299902       0.48840752      -0.77716970
H        0.70299902      -1.10659248      -0.03216970
H        0.53599902      -2.18059248      -2.23116970
H        0.52799902      -0.60459248      -3.02016970
H        2.84099902      -1.36859248      -1.22616970
H        2.57899902       0.17740752      -2.05516970
H       -0.89801098      -1.11056248      -2.10062270
H        2.85645902       0.15527752      -0.28537110
C       -1.74500098       0.31740752       1.70483030
C       -1.68800098       1.68040752       2.42783030
H       -1.22200098      -0.44959248       2.27383030
H       -2.78600098       0.00940752       1.59683030
H       -1.30300098       0.40440752       0.71483030
H       -2.15600098       1.58140752       3.40383030
H       -0.64227098       2.00063052       2.54576930
H       -2.25788098       2.42017952       1.84647830
