16
Properties=species:S:1:pos:R:3 pbc="F F F"
C       -0.13273590       1.73831429       0.36841625
C        1.11526410       1.95031429      -0.49058375
H       -0.67773590       2.67831429       0.46741625
H       -0.78973590       1.00831429      -0.10258375
H        0.14426410       1.38831429       1.36241625
H        1.63826410       1.00131429      -0.57458375
H        1.78033410       2.70048429      -0.03790475
H        0.82877410       2.24837429      -1.50993675
C        0.23626410      -1.64768571       0.11241625
C       -1.22073590      -2.04168571       0.01041625
H        0.85126410      -2.52268571       0.33241625
H        0.54526410      -1.20668571      -0.83258375
H        0.38426410      -0.91468571       0.90441625
H       -1.78773590      -1.22368571      -0.42658375
H       -1.56950590      -2.21787571       1.03867625
H       -1.32455590      -2.93064571      -0.62908875
