27
Properties=species:S:1:pos:R:3 pbc="F F F"
C       -2.28615130      -0.83100033      -0.00733288
C       -2.46915130      -2.24700033      -0.43333288
C       -3.41215130      -0.30900033       0.89266712
H       -1.34215130      -0.75200033       0.53066712
H       -2.23715130      -0.20500033      -0.89733288
H       -3.40915130      -2.33200033      -0.98233288
H       -2.57115130      -2.84200033       0.47666712
H       -4.36515130      -0.44400033       0.37566712
H       -3.45415130      -0.88800033       1.81666712
H       -1.66037830      -2.68625033      -1.03578288
H       -3.27348330       0.76286967       1.09729712
C       -0.11415130       1.06099967      -2.67833288
C        0.17984870       1.48999967      -0.18733288
C        0.54384870       0.78199967      -1.34633288
C        0.72184870       1.18799967       1.05366712
C        1.49384870      -0.24000033      -1.20233288
C        1.67384870       0.17699967       1.16566712
C        2.07384870      -0.53800033       0.03266712
O        2.19684870      -0.09100033       2.38866712
H       -0.56015130       2.27599967      -0.26233288
H        0.43084870       1.74399967       1.93166712
H       -1.18915130       1.09799967      -2.50533288
H        0.04584870       0.20299967      -3.31933288
H        1.79484870      -0.80600033      -2.07533288
H        2.82584870      -1.30800033       0.10766712
H        2.94584870      -0.69900033       2.35966712
H        0.15009170       1.97172967      -3.23577288
