36
Properties=species:S:1:pos:R:3 pbc="F F F"
C       -1.75225324      -0.80466567      -0.83925391
C       -2.42725324      -2.13166567      -1.16825391
C       -2.66125324       0.13833433      -0.08625391
C       -3.53525324       0.95933433      -0.79525391
C       -2.63525324       0.19033433       1.32674609
C       -4.37925324       1.84833433      -0.11725391
C       -3.48825324       1.06633433       1.99374609
C       -4.36425324       1.87533433       1.27174609
H       -0.86325324      -0.98766567      -0.24325391
H       -1.43525324      -0.32866567      -1.76925391
H       -3.29825324      -1.91866567      -1.79125391
H       -3.56425324       0.91033433      -1.87325391
H       -1.95025324      -0.42566567       1.89174609
H       -5.06225324       2.48433433      -0.66425391
H       -3.47425324       1.11633433       3.07474609
H       -5.02625324       2.54933433       1.79974609
H       -2.75286324      -2.64161167      -0.24959391
H       -1.76608124      -2.80225167      -1.73673391
C        1.94574676      -0.11266567      -0.84125391
C        1.91874676      -0.53966567      -2.28625391
C        4.20474676      -0.83466567      -1.46325391
C        5.02474676      -0.66966567       1.30074609
C        3.66074676      -0.20466567       0.86774609
O        2.91374676       0.31233433       1.70074609
N        3.31774676      -0.39366567      -0.38825391
H        1.70774676       0.94933433      -0.74725391
H        1.25174676      -0.71466567      -0.25925391
H        1.90074676       0.34933433      -2.91825391
H        1.05174676      -1.16666567      -2.49925391
H        4.82074676      -1.66466567      -1.17825391
H        5.70174676      -0.41166567       0.48674609
H        2.85705576      -1.08773667      -2.45711391
H        3.48901576      -1.16867367      -2.22887391
H        4.81757676      -0.00821367      -1.85238391
H        5.34427676      -0.05525267       2.15537609
H        5.04437676      -1.76235867       1.42579609
