17
Properties=species:S:1:pos:R:3 pbc="F F F"
C        1.04160125       0.15576339      -0.51070233
C        0.80560125       0.12476339      -2.00970233
O        2.36460125       0.43376339      -0.17770233
H        0.40260125       0.91976339      -0.06770233
H        0.76660125      -0.81023661      -0.08570233
H       -0.27039875       0.00476339      -2.15570233
H        2.38460125       1.38476339       0.04829767
H        1.30620125      -0.73394261      -2.48090233
H        1.08024125       1.08312339      -2.47458233
C       -2.09739875      -1.12223661       1.10729767
C       -2.28139875       0.30676339       1.58629767
H       -2.91039875      -1.75323661       1.46629767
H       -2.09839875      -1.13323661       0.01829767
H       -1.14539875      -1.52123661       1.45329767
H       -1.45339875       0.88276339       1.17529767
H       -2.22980875       0.40708339       2.68049767
H       -3.19778875       0.75917339       1.17941767
