29
Properties=species:S:1:pos:R:3 pbc="F F F"
C       -0.20880569       2.18137296       2.16598242
C        1.06819431       0.76137296       0.52398242
C        0.30919431       1.89037296       0.77298242
C        1.54719431       0.52237296      -0.74301758
C        1.27319431       1.40537296      -1.78301758
C        0.01819431       2.74937296      -0.28401758
C        0.51419431       2.50637296      -1.55401758
H        1.29519431       0.06937296       1.32398242
H        2.14919431      -0.34962704      -0.93401758
H       -0.19880569       3.25837296       2.33298242
H        0.47019431       1.73437296       2.89198242
H        1.65919431       1.21237296      -2.77401758
H       -0.59180569       3.62337296      -0.11801758
H        0.27419431       3.17037296      -2.36701758
H       -1.22091569       1.79026396       2.34671642
C       -0.95880569      -2.36662704       0.21198242
C       -2.21580569      -2.91262704       0.90298242
C        0.26119431      -3.08862704       0.76998242
C       -1.08880569      -2.52362704      -1.32001758
H       -0.86280569      -1.30362704       0.43698242
H       -2.32780569      -3.95962704       0.62198242
H        0.14719431      -4.16762704       0.65298242
H        1.14519431      -2.76962704       0.21798242
H        0.42619431      -2.84262704       1.81898242
H       -1.98280569      -2.02462704      -1.69001758
H       -0.21980569      -2.07462704      -1.80301758
H       -1.12180569      -3.58162704      -1.57301758
H       -3.11843569      -2.34866804       0.62513342
H       -2.10743569      -2.84254604       1.99538542
