23
Properties=species:S:1:pos:R:3 pbc="F F F"
C       -2.84971508      -0.99370597       0.31688377
C        0.93528492      -0.73570597       0.47388377
C       -0.35071508      -1.09670597       0.07288377
C        1.11028492       0.11229403       1.56588377
C       -1.46671508      -0.61570597       0.76088377
C        0.00128492       0.60729403       2.24888377
C       -1.28471508       0.24129403       1.84588377
H        1.79628492      -1.09770597      -0.06511623
H       -0.47971508      -1.75170597      -0.77811623
H        2.10728492       0.38029403       1.88588377
H        0.13828492       1.26729403       3.09588377
H       -3.56471508      -0.77270597       1.11188377
H       -2.86071508      -2.07170597       0.15088377
H       -2.14071508       0.62729403       2.38288377
H       -3.16444508      -0.48280597      -0.60503223
C        1.82628492       1.44229403      -2.45611623
C        1.83728492       0.79829403      -3.84511623
H        2.65428492       1.06329403      -1.85711623
H        1.94428492       2.52029403      -2.55411623
H        0.89128492       1.22729403      -1.94211623
H        2.82128492       0.95829403      -4.28711623
H        1.64425092      -0.28198597      -3.76933223
H        1.08992992       1.27853403      -4.49383223
