16
Properties=species:S:1:pos:R:3 pbc="F F F"
C       -1.33243129      -1.77713291      -0.30004794
C       -0.74143129      -2.06413291       1.07095206
H       -1.35943129      -0.71413291      -0.52404794
H       -0.72743129      -2.27413291      -1.05904794
H       -2.34643129      -2.17413291      -0.35004794
H        0.28356871      -1.68913291       1.08695206
H       -0.68243129      -3.13813291       1.19195206
H       -1.29867129      -1.60873291       1.90287106
C        0.71456871       1.39086709      -0.82204794
C        1.35256871       2.45686709       0.05095206
H        1.43556871       0.99886709      -1.53804794
H        0.40456871       0.57286709      -0.17804794
H       -0.15443129       1.78786709      -1.34004794
H        2.06456871       1.99286709       0.72195206
H        1.87084871       3.20229709      -0.57011794
H        0.58983871       2.96655709       0.65796306
