30
Properties=species:S:1:pos:R:3 pbc="F F F"
C       -1.15428237       2.12590667      -2.58553470
C       -1.50128237      -0.52909333       0.11046530
C       -0.79328237       0.03790667      -0.98953470
C       -1.50428237       1.21890667      -1.41053470
C       -2.56928237       1.32890667      -0.56253470
C        0.08871763      -2.29309333       0.27746530
C       -1.06328237      -1.68309333       0.75446530
C        0.78671763      -1.77709333      -0.82953470
C        0.33971763      -0.63509333      -1.48053470
N       -2.56628237       0.29490667       0.36046530
H        0.45571763      -3.18709333       0.76746530
H       -1.60028237      -2.08409333       1.60346530
H        1.67871763      -2.28409333      -1.16853470
H        0.87971763      -0.23509333      -2.32753470
H       -3.25828237       0.17790667       1.09346530
H       -3.31928237       2.09490667      -0.59353470
H       -0.09328237       2.01690667      -2.80253470
H       -1.33328237       3.16190667      -2.29553470
H       -1.71396237       1.90805407      -3.50710870
C        2.42871763       0.09690667       1.92146530
C        3.78771763      -0.50309333       1.59946530
N        2.45771763       1.58990667       1.98446530
H        1.70771763      -0.24009333       1.16746530
H        2.09671763      -0.30009333       2.88746530
H        3.74871763      -1.55509333       1.85146530
H        4.55271763      -0.05009333       2.23446530
H        2.85371763       2.00690667       1.14246530
H        1.52371763       1.96090667       2.12246530
H        3.02271763       1.90490667       2.76646530
H        4.05874763      -0.36364733       0.54253590
