22
Properties=species:S:1:pos:R:3 pbc="F F F"
C        1.26387506      -1.41853874       0.05934922
C        1.02887506      -2.68553874      -0.76465078
C        2.58787506      -1.36653874       0.80934922
H        1.20187506      -0.55553874      -0.60765078
H        0.46187506      -1.31253874       0.78734922
H        1.22987506      -3.54653874      -0.13465078
H        2.62387506      -2.20553874       1.50534922
H        3.41387506      -1.45253874       0.10234922
H        1.70542506      -2.71785874      -1.63138778
H       -0.02568494      -2.71152874      -1.07647078
H        2.67201506      -0.41439874       1.35373522
C       -1.16812494       1.51846126       0.03834922
C       -1.94512494       2.15346126       1.19834922
C       -1.75912494       1.80546126      -1.33265078
H       -0.14312494       1.89346126       0.05434922
H       -1.10912494       0.44446126       0.15934922
H       -2.99312494       1.87346126       1.11234922
H       -1.78612494       2.86846126      -1.55665078
H       -1.15412494       1.30846126      -2.09165078
H       -2.77312494       1.40846126      -1.38265078
H       -1.54223494       1.78836126       2.15458522
H       -1.88045494       3.25071126       1.15523522
