23
Properties=species:S:1:pos:R:3 pbc="F F F"
C        2.04079420      -1.48512852       0.54972628
C       -1.56420580      -0.34112852       0.31372628
C       -0.37320580      -1.01012852       0.05772628
C       -1.63120580       0.58587148       1.34172628
C        0.75379420      -0.76612852       0.83172628
C       -0.50620580       0.83487148       2.11972628
C        0.68379420       0.16487148       1.86172628
H       -2.43020580      -0.57112852      -0.27827372
H       -0.32720580      -1.72712852      -0.74927372
H       -2.55620580       1.10287148       1.55572628
H       -0.55220580       1.55587148       2.92172628
H        2.86179420      -0.81712852       0.81772628
H        2.12279420      -1.69312852      -0.51427372
H        1.55279420       0.37287148       2.46772628
H        2.15310720      -2.44411152       1.07673628
C       -0.37620580       1.46387148      -2.88227372
C        0.65979420       0.42887148      -3.26127372
H       -0.85520580       1.17587148      -1.94827372
H        0.11179420       2.42587148      -2.72727372
H       -1.09520580       1.58287148      -3.68527372
H        0.18779420      -0.55312852      -3.27327372
H        1.08006520       0.64801748      -4.25392372
H        1.47393620       0.42091848      -2.52160372
