28
Properties=species:S:1:pos:R:3 pbc="F F F"
C        2.35808555       2.39652359       0.97319827
C       -1.26891445       1.25252359       0.97619827
C       -0.11391445       1.96952359       0.71619827
C       -1.21691445       0.16252359       1.83119827
C        1.10408555       1.61352359       1.28419827
C       -0.01191445      -0.21247641       2.41119827
C        1.14208555       0.51152359       2.13819827
O       -2.34391445      -0.54647641       2.09219827
H       -2.21491445       1.57752359       0.58119827
H       -0.19791445       2.86352359       0.19419827
H       -3.03491445      -0.39547641       1.41119827
H        0.00608555      -1.07247641       3.04519827
H        2.98208555       2.46752359       1.86519827
H        2.06508555       3.41052359       0.69619827
H        2.07408555       0.21352359       2.59719827
H        2.94039655       1.96087359       0.14789827
C        0.28408555      -0.23547641      -2.19980173
C        0.83208555       0.07952359      -3.59680173
C       -0.05391445      -1.70047641      -2.01180173
O        0.00108555      -2.49647641      -2.94480173
N       -0.41691445      -2.06747641      -0.79380173
H        1.00608555       0.04452359      -1.43780173
H       -0.62591445       0.33952359      -2.02880173
H        0.15008555      -0.37047641      -4.32080173
H       -0.76391445      -3.00147641      -0.67880173
H       -0.48291445      -1.38547641      -0.05180173
H        1.83902455      -0.34361641      -3.72729173
H        0.83569755       1.16398359      -3.78103173
