26
Properties=species:S:1:pos:R:3 pbc="F F F"
C        0.60498496      -2.25890092      -1.22717462
C       -0.22801504      -3.41390092      -0.66117462
C        2.10098496      -2.46390092      -1.01417462
O        2.49398496      -3.38690092      -0.26617462
O        2.88098496      -1.68190092      -1.58817462
H        0.39398496      -2.14390092      -2.29217462
H        0.30698496      -1.33690092      -0.72917462
H       -1.27701504      -3.21890092      -0.88517462
H       -0.07859804      -3.48898492       0.42604038
H        0.04369396      -4.35625792      -1.15930862
C       -0.80001504       1.09709908       3.47582538
C       -1.46201504       0.82409908      -0.26217462
C       -1.32201504       0.49209908       1.08182538
C       -1.19401504       2.12509908      -0.68217462
C       -0.93101504       1.45009908       2.01682538
C       -0.79601504       3.08109908       0.23782538
C       -0.66701504       2.74509908       1.57982538
O       -1.30301504       2.47609908      -1.99617462
H       -1.77301504       0.07509908      -0.97617462
H       -1.53101504      -0.51790092       1.40582538
H       -1.58801504       1.73509908      -2.53917462
H       -0.58701504       4.08209908      -0.10217462
H       -0.06101504       1.75209908       3.93782538
H       -0.42601504       0.07609908       3.55382538
H       -0.36701504       3.49809908       2.29382538
H       -1.75214104       1.16995108       4.02185538
