27
Properties=species:S:1:pos:R:3 pbc="F F F"
C       -2.68532788       2.22738886      -2.46467276
C       -1.83232788      -1.25461114      -2.03967276
C       -2.01732788       0.91938886      -2.24267276
C       -0.70232788       0.63138886      -2.05567276
N       -2.70632788      -0.27661114      -2.22067276
N       -0.61332788      -0.72861114      -1.94467276
H       -2.13832788      -2.29061114      -1.98667276
H        0.24367212      -1.24261114      -1.80767276
H        0.16867212       1.26838886      -1.99467276
H       -1.96532788       3.00638886      -2.23667276
H       -3.51532788       2.27938886      -1.75867276
H       -3.04466788       2.34860886      -3.49723276
C        3.83667212      -0.42461114       2.90132724
C       -0.17732788      -0.10161114       1.22732724
C        0.64167212       1.02538886       1.27332724
C        0.31267212      -1.31561114       1.68732724
C        1.95767212       0.92138886       1.78632724
C        1.61667212      -1.41461114       2.20632724
C        2.45367212      -0.30061114       2.26632724
H       -1.18432788      -0.03561114       0.83432724
H        0.25867212       1.97338886       0.91532724
H       -0.32432788      -2.18661114       1.64232724
H        2.59267212       1.79538886       1.81832724
H        1.98467212      -2.36461114       2.56732724
H        4.10667212      -1.48261114       2.88632724
H        3.73867212      -0.10761114       3.94232724
H        4.64234212       0.12480886       2.39236724
