22
Properties=species:S:1:pos:R:3 pbc="F F F"
C       -0.24651268      -0.63395910      -1.35568772
C       -0.58451268      -0.96695910      -4.05168772
S        0.48448732      -1.48695910      -2.70568772
H       -1.33451268      -0.72095910      -1.37968772
H        0.12448732      -1.10295910      -0.45068772
H        0.07948732       0.40204090      -1.39468772
H       -1.47451268      -1.57795910      -3.89868772
H       -0.26051268      -1.35495910      -5.00268772
H       -0.98547268       0.05652200      -4.01023372
C       -1.11751268       2.25204090       3.34631228
C        0.24448732       0.65604090       2.01031228
N        0.12548732       1.76004090       2.73531228
N       -0.76251268      -0.15595910       1.78331228
N        1.40448732       0.34504090       1.47331228
H        0.96148732       2.31804090       2.87031228
H       -1.67551268       0.05804090       2.15631228
H       -0.62251268      -1.06595910       1.37231228
H        2.22048732       0.91704090       1.68631228
H        1.55348732      -0.52195910       0.98031228
H       -1.95551268       2.09504090       2.66831228
H       -1.03851268       3.33304090       3.48231228
H       -1.36137268       1.79812700       4.31816228
