17
Properties=species:S:1:pos:R:3 pbc="F F F"
C       -0.40049507       0.05126122      -1.60723280
C       -0.62849507       1.44726122      -2.21323280
O       -1.37849507      -0.23973878      -0.62023280
H       -0.43149507      -0.70073878      -2.39423280
H        0.58050493       0.00826122      -1.13723280
H       -0.63949507       2.15826122      -1.38723280
H       -2.25149507      -0.28073878      -1.05923280
H       -1.58848507       1.48057322      -2.74923280
H        0.20435493       1.74439622      -2.86753280
C        1.35850493      -1.06673878       1.62576720
C        1.20050493      -0.16873878       2.85976720
H        1.94250493      -0.56173878       0.85576720
H        1.88450493      -1.97673878       1.91476720
H        0.38050493      -1.34073878       1.22676720
H        2.19750493       0.04626122       3.24176720
H        0.71492493       0.78831122       2.61836720
H        0.65445493      -0.69458778       3.65686720
