19
Properties=species:S:1:pos:R:3 pbc="F F F"
C       -0.54477861       1.41595720      -0.36632214
C       -0.22477861       1.87295720       1.06067786
C       -1.87477861       1.95395720      -0.88532214
H        0.26022139       1.76795720      -1.01332214
H       -0.56377861       0.32895720      -0.41032214
H        0.80922139       1.56395720       1.22867786
H       -2.69477861       1.41995720      -0.41232214
H       -1.97477861       3.00795720      -0.63632214
H       -0.84770861       1.34372720       1.79679786
H       -0.22333861       2.96765720       1.16856786
H       -1.99794861       1.87976720      -1.97588214
C        1.01022139      -1.87404280      -0.00232214
C        1.59122139      -3.27404280       0.16567786
H        0.51322139      -1.77604280      -0.96532214
H        0.27222139      -1.69304280       0.77767786
H        1.80122139      -1.12704280       0.07767786
H        0.78122139      -3.99604280       0.09567786
H        2.00222139      -3.32304280       1.17267786
H        2.37388139      -3.49416280      -0.57526214
