23
Properties=species:S:1:pos:R:3 pbc="F F F"
C       -1.82877049       0.79796624       2.22530504
C       -0.53877049       0.46796624       2.96730504
H       -2.45277049       1.45796624       2.82730504
H       -1.57977049       1.29296624       1.28730504
H       -2.38877049      -0.09703376       1.96830504
H        0.05322951      -0.20403376       2.34730504
H       -0.75318849      -0.02397476       3.92752304
H        0.05319751       1.38079424       3.12953704
C       -1.76277049      -1.31103376      -1.24669496
C       -0.45377049      -0.63003376      -0.97269496
C       -0.26977049       0.71496624      -1.30069496
C        0.62222951      -1.35003376      -0.46469496
C        0.97722951       1.34496624      -1.09969496
C        1.84522951      -0.70603376      -0.25169496
C        2.01222951       0.62996624      -0.53669496
H       -2.55377049      -0.74603376      -0.75269496
H       -1.75777049      -2.31603376      -0.82269496
H       -1.08877049       1.28596624      -1.70969496
H        0.51522951      -2.40103376      -0.23069496
H        1.10722951       2.38896624      -1.34969496
H        2.67422951      -1.26603376       0.15930504
H        2.96522951       1.10596624      -0.35169496
H       -1.97946749      -1.36628476      -2.32372296
