34
Properties=species:S:1:pos:R:3 pbc="F F F"
C       -0.33760335      -0.07920265      -4.85091210
C        2.00739665      -1.08220265      -1.37591210
C        2.36339665       0.00779735      -2.17791210
C        0.87139665      -1.84220265      -1.69291210
C        1.58539665       0.33079735      -3.28791210
C        0.09839665      -1.50720265      -2.80391210
C        0.45939665      -0.42420265      -3.61691210
H        2.60439665      -1.34020265      -0.51491210
H        3.24139665       0.59179735      -1.93891210
H        0.59439665      -2.68320265      -1.07391210
H        1.87139665       1.16679735      -3.90991210
H       -0.77260335      -2.09920265      -3.04391210
H       -0.78460335      -0.99720265      -5.23191210
H        0.34639665       0.28079735      -5.61791210
H       -1.12741535       0.66828535      -4.68520210
C        0.29839665       1.67979735       0.18808790
C       -0.27760335       3.08179735       0.10708790
C       -0.27660335       0.88479735       1.33108790
C        0.10439665       1.16479735       2.64308790
C       -1.20160335      -0.13520265       1.10108790
C       -0.41060335       0.43279735       3.71008790
C       -1.72560335      -0.87920265       2.16208790
C       -1.32060335      -0.59220265       3.47108790
O       -1.78060335      -1.30720265       4.53008790
H        0.11839665       1.15679735      -0.75291210
H        1.37939665       1.74779735       0.32608790
H       -0.18360335       3.54479735       1.09108790
H        0.82139665       1.95279735       2.83708790
H       -1.50460335      -0.36320265       0.08708790
H       -0.09360335       0.65779735       4.71908790
H       -2.42860335      -1.67520265       1.98008790
H       -1.40560335      -0.99020265       5.35308790
H       -1.33086935       3.02840955      -0.20561210
H        0.24943265       3.69655185      -0.63743210
