16
Properties=species:S:1:pos:R:3 pbc="F F F"
C       -0.20813634       1.22979885      -1.24135697
C       -1.61113634       1.59779885      -1.70535697
H        0.47186366       2.04879885      -1.47135697
H       -0.20613634       1.06379885      -0.16735697
H        0.13286366       0.32479885      -1.74535697
H       -1.90813634       2.52079885      -1.21035697
H       -1.58321634       1.75531885      -2.79366197
H       -2.32244634       0.80449185      -1.43205097
C        0.62886366      -1.85920115       0.92164303
C        1.18886366      -0.97020115       2.02664303
H        0.00486366      -2.64520115       1.34864303
H        0.02186366      -1.26820115       0.23964303
H        1.44686366      -2.30820115       0.35764303
H        1.80186366      -0.19420115       1.57664303
H        1.79446366      -1.58943915       2.70472303
H        0.36370366      -0.49125915       2.57411303
