16
Properties=species:S:1:pos:R:3 pbc="F F F"
C        1.63691873      -0.56374308      -0.27597982
C        2.10291873      -1.59374308      -1.32097982
H        1.13091873      -1.06174308       0.55402018
H        2.50491873      -0.02674308       0.10502018
H        0.96891873       0.16925692      -0.72797982
H        2.47891873      -1.04874308      -2.18397982
H        1.27052873      -2.23979508      -1.63680982
H        2.92903873      -2.18587908      -0.90037982
C       -1.34608127       1.60225692       0.62202018
C       -2.40308127       0.55425692       0.96902018
H       -1.70808127       2.60625692       0.83502018
H       -0.45308127       1.42125692       1.22102018
H       -1.08708127       1.52925692      -0.43397982
H       -2.66108127       0.65725692       2.02402018
H       -1.94008127      -0.42374308       0.84602018
H       -3.32272127       0.61494792       0.36854018
