16
Properties=species:S:1:pos:R:3 pbc="F F F"
C        0.47894475      -0.37544010      -1.46651061
C        0.75894475       0.20655990      -2.85051061
H        1.07494475       0.15555990      -0.72351061
H       -0.58405525      -0.26544010      -1.25751061
H        0.74194475      -1.43244010      -1.44351061
H        1.72794475      -0.11544010      -3.20451061
H        0.81294475       1.28955990      -2.73051061
H       -0.01358725      -0.00969010      -3.60312061
C       -0.68505525      -0.34044010       1.53548939
C       -0.54405525       0.50355990       2.77848939
H       -1.46305525      -1.07344010       1.72148939
H       -0.99605525       0.31655990       0.72748939
H        0.20694475      -0.89644010       1.26848939
H       -0.80005525      -0.11044010       3.64448939
H       -1.28105525       1.30255990       2.71248939
H        0.46853175       0.90772990       2.92447939
