19
Properties=species:S:1:pos:R:3 pbc="F F F"
C        0.83010988       1.96768223       0.92678345
C        1.29110988       2.82068223       2.08978345
H        0.44810988       1.01968223       1.30078345
H        0.03610988       2.48668223       0.39078345
H        1.66510988       1.78368223       0.25378345
H        0.40710988       2.97668223       2.70478345
H        2.09164988       2.35352223       2.68214345
H        1.66447988       3.79218223       1.73364345
C       -0.30289012      -1.11331777      -1.03421655
C       -1.35289012      -1.44531777       0.00578345
C       -0.48089012      -2.28931777      -2.06621655
H        0.69510988      -1.12231777      -0.58321655
H       -0.48589012      -0.14131777      -1.48721655
H       -1.09789012      -1.04631777       0.98278345
H       -2.33689012      -1.07631777      -0.29121655
H        0.40110988      -2.41131777      -2.69421655
H       -1.36789012      -2.21431777      -2.69821655
H       -1.34914412      -2.54522777       0.01927345
H       -0.58698012      -3.14525777      -1.38348655
