23
Properties=species:S:1:pos:R:3 pbc="F F F"
C        1.88204412      -2.43545598      -0.89265338
C       -0.73095588       0.25454402      -0.01865338
C       -1.53095588      -0.39045598       0.91634662
C        0.38604412      -0.39845598      -0.64165338
C        0.69004412      -1.71045598      -0.29965338
C       -1.23395588      -1.70445598       1.24334662
C       -0.12895588      -2.34845598       0.63334662
H       -0.99295588       1.25354402      -0.24965338
H       -2.36595588       0.12254402       1.37534662
H        0.99804412       0.11354402      -1.37565338
H       -1.84995588      -2.21845598       1.96634662
H        2.47604412      -2.81045598      -0.05765338
H        2.46904412      -1.69945598      -1.44265338
H        0.11304412      -3.37045598       0.88334662
H        1.61640412      -3.25665598      -1.57460338
C        0.34804412       3.42754402      -0.97865338
C        0.01604412       4.34354402       0.26434662
H        1.25804412       2.85254402      -0.79665338
H       -0.46895588       2.76154402      -1.17765338
H        0.48604412       4.03254402      -1.87665338
H       -0.88495588       4.92154402       0.07234662
H        0.87529412       5.01974402       0.38469662
H       -0.12346588       3.74204402       1.17472662
