16
Properties=species:S:1:pos:R:3 pbc="F F F"
C       -0.35343173       1.05728031      -1.42989038
C        0.53056827       2.06528031      -2.16289038
H        0.09656827       0.06728031      -1.43889038
H       -0.49543173       1.36228031      -0.39389038
H       -1.32943173       1.00728031      -1.91389038
H        0.02256827       3.02728031      -2.17089038
H        0.69368827       1.74584031      -3.20277038
H        1.49071827       2.18286031      -1.63917038
C       -0.16843173      -1.85871969       1.10010962
C       -0.00543173      -1.26871969       2.49310962
H       -0.59643173      -2.85971969       1.16510962
H       -0.83543173      -1.23071969       0.51010962
H        0.80156827      -1.90671969       0.60810962
H        0.45056827      -0.28471969       2.38610962
H        0.64887827      -1.90289969       3.10930962
H       -0.98683173      -1.14990969       2.97552962
