16
Properties=species:S:1:pos:R:3 pbc="F F F"
C        1.56076116      -1.16726329       0.81407353
C        1.79376116      -2.38826329      -0.06892647
H        1.52476116      -1.46926329       1.86207353
H        2.36576116      -0.44426329       0.67207353
H        0.61176116      -0.70626329       0.55307353
H        2.75976116      -2.82026329       0.18107353
H        1.00181116      -3.12517929       0.13049353
H        1.81027116      -2.09674129      -1.12946647
C       -1.16023884       1.21273671      -0.38292647
C       -2.19523884       2.34073671      -0.36492647
H       -0.46323884       1.34973671      -1.20992647
H       -0.60623884       1.21473671       0.55707353
H       -1.65923884       0.24773671      -0.49392647
H       -2.91723884       2.15873671       0.43507353
H       -2.70925884       2.40442071      -1.33535647
H       -1.70752884       3.31107121      -0.19001647
