15
Properties=species:S:1:pos:R:3 pbc="F F F"
C        0.66403179      -1.86877326      -1.58882353
C        1.87603179      -2.28877326      -0.76482353
H        0.10603179      -2.73977326      -1.92282353
H        0.00303179      -1.25477326      -0.98382353
H        0.98303179      -1.29477326      -2.45982353
H        1.53103179      -2.81777326       0.11417647
H        2.54781179      -2.91704326      -1.36813353
H        2.41052179      -1.39602326      -0.40801353
C        0.34503179       1.32722674       1.60917647
C       -0.70396821       1.04222674       0.54017647
O       -0.78996821       1.81922674      -0.43682353
O       -1.44196821       0.04222674       0.68017647
H        1.30703179       1.51122674       1.12917647
H        0.44903179       0.45722674       2.25817647
H        0.09822179       2.21300674       2.21288647
