19
Properties=species:S:1:pos:R:3 pbc="F F F"
C       -1.21932052      -0.84813662       0.39680921
C       -2.42632052      -1.71213662       0.72080921
C       -0.12932052      -1.59113662      -0.31419079
H       -1.51332052       0.01586338      -0.20019079
H       -0.81732052      -0.46613662       1.33680921
H       -3.17832052      -1.05113662       1.15480921
H       -0.29132052      -1.55713662      -1.39119079
H        0.83067948      -1.14513662      -0.08019079
H       -0.08232052      -2.62913662       0.00280921
H       -2.83826052      -2.13978662      -0.20516079
H       -2.21065052      -2.48125662       1.47707921
C        1.41367948       1.42186338      -0.42519079
C        2.27567948       2.66586338      -0.36019079
H        0.64267948       1.52886338      -1.19019079
H        2.05567948       0.57286338      -0.65819079
H        0.94467948       1.25286338       0.54580921
H        3.04967948       2.48786338       0.38480921
H        1.66719948       3.53164338      -0.05989079
H        2.76092948       2.83859338      -1.33215079
