23
Properties=species:S:1:pos:R:3 pbc="F F F"
C        1.53460320       2.48990487       0.54986446
C        0.76260320       3.81390487       0.63386446
C        2.67360320       2.41190487      -0.47913554
H        1.94960320       2.27590487       1.53686446
H        0.81860320       1.69990487       0.32986446
H        0.34660320       4.02790487      -0.35213554
H        3.44660320       3.13690487      -0.22313554
H        1.43170320       4.63990487       0.91674446
H       -0.08508280       3.72323487       1.32899446
H        3.11613320       1.40523487      -0.45107554
H        2.30278320       2.63007487      -1.49150554
C       -1.85739680      -2.37709513       1.69286446
C       -0.46639680      -0.39109513      -1.00813554
C       -1.23939680      -1.87309513       0.41986446
C       -0.55639680      -2.54009513      -0.54713554
N       -1.17139680      -0.53309513       0.10486446
N       -0.07839680      -1.59109513      -1.42813554
H       -0.24039680       0.55090487      -1.49313554
H        0.58260320      -1.74609513      -2.18213554
H       -0.36039680      -3.60409513      -0.56913554
H       -2.14939680      -3.41909513       1.56186446
H       -2.76039680      -1.79909513       1.88686446
H       -1.17493080      -2.28682513       2.55082446
