21
Properties=species:S:1:pos:R:3 pbc="F F F"
C        0.86627015      -2.23347696      -0.17395488
C        0.29127015      -0.02047696      -1.16095488
N        1.16927015      -0.87147696      -0.64595488
N       -0.95672985      -0.37947696      -1.38695488
N        0.69927015       1.18252304      -1.50895488
H        2.11727015      -0.54847696      -0.50595488
H       -1.26472985      -1.32247696      -1.17295488
H       -1.61372985       0.29152304      -1.76995488
H        1.66927015       1.44552304      -1.39295488
H        0.04627015       1.85252304      -1.90195488
H       -0.18572985      -2.28247696       0.10604512
H        1.47827015      -2.44347696       0.70204512
H        1.05187015      -3.03629696      -0.90267488
C       -0.74472985       0.41752304       2.53204512
C       -1.24772985       1.84952304       2.29204512
H       -0.05672985       0.40552304       3.37604512
H       -1.58972985      -0.23447696       2.75404512
H       -0.23272985       0.05352304       1.64304512
H       -1.76372985       2.20652304       3.18204512
H       -1.93872985       1.84552304       1.45204512
H       -0.43884985       2.56192304       2.07235512
