16
Properties=species:S:1:pos:R:3 pbc="F F F"
C        0.04198255      -1.14509084       1.17177465
C       -0.50801745      -2.20609084       2.11277465
H       -0.11701745      -1.44409084       0.13477465
H       -0.47201745      -0.20509084       1.34277465
H        1.10798255      -0.99409084       1.34277465
H       -0.23801745      -1.95309084       3.13877465
H       -0.10640745      -3.19466684       1.84551465
H       -1.60433745      -2.22843284       2.02571565
C        0.69198255       1.06390916      -1.67522535
C       -0.22401745       2.28790916      -1.60122535
H        1.10798255       0.84390916      -0.69122535
H        0.13098255       0.19890916      -2.03322535
H        1.50998255       1.26290916      -2.36922535
H       -0.59201745       2.48290916      -2.61122535
H        0.34748255       3.15984316      -1.25034335
H       -1.09759745       2.06339716      -0.97158435
