22
Properties=species:S:1:pos:R:3 pbc="F F F"
C        0.32397700       1.00138288       2.63041664
C       -0.04602300       2.01538288       1.56941664
O       -0.81402300       1.72738288       0.65441664
N        0.52297700       3.20038288       1.67141664
H        0.46697700       1.50838288       3.58641664
H        1.27397700       0.54938288       2.34141664
H        0.35397700       3.90938288       0.96841664
H        1.19197700       3.36238288       2.40141664
H       -0.43841300       0.21671488       2.74466764
C       -0.86202300      -3.32661712      -1.76858336
C        0.21197700      -1.17661712      -1.18558336
N       -0.96202300      -0.58061712      -1.10858336
N        0.29097700      -2.46261712      -1.48758336
N        1.30797700      -0.48361712      -0.95958336
H       -1.80002300      -1.09461712      -1.31458336
H       -1.02102300       0.37538288      -0.76958336
H        1.21097700      -2.87361712      -1.55958336
H        2.21297700      -0.92561712      -1.02958336
H        1.25497700       0.51038288      -0.80758336
H       -0.67002300      -3.84461712      -2.71058336
H       -1.79002300      -2.77061712      -1.90458336
H       -1.01030300      -4.09116212      -0.99174150
