20
Properties=species:S:1:pos:R:3 pbc="F F F"
C       -0.14271110       0.22542461       3.66205702
C        0.03728890       0.37742461       2.17605702
O       -0.97271110       0.43942461       1.46205702
O        1.19428890       0.42542461       1.70905702
H        0.64528890       0.75142461       4.20205702
H       -0.02871110      -0.83657539       3.88605702
H       -1.12725910       0.55241461       4.02776702
C       -1.92971110      -0.86557539      -1.83094298
C        0.44728890      -0.16157539      -1.78694298
N       -0.73471110      -0.30757539      -1.21394298
N        0.63728890      -0.39557539      -3.07594298
N        1.42428890       0.27942461      -1.04494298
H       -0.80671110      -0.02257539      -0.23594298
H       -2.05771110      -0.49157539      -2.84794298
H       -2.80271110      -0.55857539      -1.25194298
H       -0.13871110      -0.68357539      -3.64794298
H        1.53828890      -0.24957539      -3.50294298
H        1.26228890       0.39242461      -0.03794298
H        2.35828890       0.32742461      -1.40794298
H       -1.87691010      -1.96427539      -1.83889938
