27
Properties=species:S:1:pos:R:3 pbc="F F F"
C       -2.68025672       0.33000609       0.76138172
C       -2.07125672       0.53400609       2.16838172
C       -2.86125672      -1.15699391       0.51638172
O       -1.93925672      -1.93399391       0.43538172
N       -4.09925672      -1.63099391       0.55338172
H       -3.63025672       0.84700609       0.67738172
H       -2.00425672       0.73800609       0.00938172
H       -1.92025672       1.60000609       2.33338172
H       -1.09025672       0.05800609       2.19538172
H       -4.23925672      -2.62199391       0.44038172
H       -4.88225672      -0.99499391       0.66638172
H       -2.69387672       0.12156409       2.97599172
C        4.14774328       1.39600609       0.49938172
C        0.83574328      -0.24099391      -0.27061828
C        0.65774328       0.06200609      -1.61061828
C        1.96674328       0.18100609       0.38238172
C        2.95574328       0.90800609      -0.24661828
C        1.63774328       0.75900609      -2.28061828
C        2.78674328       1.20100609      -1.60561828
H        0.10474328      -0.81199391       0.26738172
H       -0.23625672      -0.25799391      -2.12861828
H        2.07874328      -0.06099391       1.43038172
H        1.52274328       0.97200609      -3.33261828
H        3.96374328       1.33200609       1.57338172
H        4.25774328       2.45200609       0.25738172
H        3.53974328       1.76700609      -2.13261828
H        5.08847328       0.87907209       0.25896172
