27
Properties=species:S:1:pos:R:3 pbc="F F F"
C       -1.41513278      -1.64603275       3.78242839
C        0.01686722      -1.72803275       4.30242839
H       -1.41613278      -1.26603275       2.76642839
H       -1.87413278      -2.63303275       3.78542839
H       -2.00913278      -0.98103275       4.40842839
H        0.58386722      -2.42303275       3.68342839
H        0.47534722      -0.72929275       4.25435839
H       -0.01652278      -2.10907275       5.33377839
C        2.86386722       1.46196725      -1.47357161
C       -0.76613278       0.60396725      -1.07657161
C        0.60386722       0.30396725      -0.86857161
C        1.37486722       1.32396725      -1.51157161
C        0.48186722       2.16796725      -2.07257161
C       -1.43513278      -1.33403275       0.11742839
C       -1.78313278      -0.18803275      -0.57757161
C       -0.08813278      -1.66303275       0.32842839
C        0.93686722      -0.85303275      -0.15957161
N       -0.79613278       1.75096725      -1.81957161
H       -2.21113278      -1.96703275       0.52542839
H       -2.79513278       0.11596725      -0.70357161
H        0.15286722      -2.55903275       0.88442839
H        1.97186722      -1.11903275      -0.00057161
H       -1.62613278       2.25996725      -2.09857161
H        0.74986722       3.07596725      -2.60257161
H        3.18786722       2.21696725      -2.19157161
H        3.31986722       0.50496725      -1.72957161
H        3.14988722       1.75519725      -0.45268461
