24
Properties=species:S:1:pos:R:3 pbc="F F F"
C        3.53510064       0.02089204       0.43234315
C        3.24610064      -0.01710796       1.94934315
H        2.61710064       0.20189204      -0.12565685
H        4.24710064       0.81189204       0.20134315
H        3.95910064      -0.93210796       0.11534315
H        4.17710064      -0.14010796       2.49834315
H        2.53999064      -0.82869796       2.17897315
H        2.77972064       0.94554204       2.20585315
C       -1.01189936       2.77989204      -1.31765685
C        0.08010064      -0.87110796      -0.72965685
C        0.03310064       0.45289204      -1.22265685
C       -0.93889936      -1.29810796       0.12334315
C       -0.99989936       1.33689204      -0.84365685
C       -1.91089936      -0.42210796       0.56134315
C       -1.96789936       0.88789204       0.07534315
O       -0.89789936      -2.55410796       0.61934315
H        0.87710064      -1.53710796      -1.02965685
H        0.81410064       0.79889204      -1.88165685
H       -0.15989936      -3.06110796       0.26534315
H       -2.53989936      -0.84010796       1.30634315
H       -1.99089936       3.22689204      -1.13965685
H       -0.82789936       2.79089204      -2.39065685
H       -2.78089936       1.53689204       0.35434315
H       -0.23373436       3.36688204      -0.80784685
