23
Properties=species:S:1:pos:R:3 pbc="F F F"
C       -0.56318148      -1.13904598       2.65117335
C        0.59881852       0.10395402       0.81317335
C       -0.55918148      -0.11704598       1.55717335
C        0.62781852       1.08695402      -0.16982665
C       -0.50518148       1.84995402      -0.41482665
C       -1.69318148       0.65495402       1.30917335
C       -1.66518148       1.64095402       0.31917335
H        1.48481852      -0.48304598       1.00517335
H        1.53181852       1.25795402      -0.73682665
H        0.05981852      -1.97804598       2.34017335
H       -1.57718148      -1.51804598       2.77817335
H       -0.48818148       2.60495402      -1.18682665
H       -2.59318148       0.49995402       1.88717335
H       -2.54518148       2.24095402       0.12617335
H       -0.18704448      -0.75068598       3.60913335
C        1.30381852      -1.41004598      -2.13782665
C        1.99181852      -1.97404598      -3.36482665
H        0.74281852      -0.51704598      -2.39882665
H        0.60381852      -2.14404598      -1.73882665
H        2.04781852      -1.16704598      -1.37982665
H        1.22981852      -2.22104598      -4.09982665
H        2.67595552      -1.23259598      -3.80324665
H        2.53858952      -2.89250598      -3.10507665
