23
Properties=species:S:1:pos:R:3 pbc="F F F"
C       -0.77169773      -0.37174830      -0.71938113
C       -1.69669773       0.19525170      -1.81338113
C       -0.31869773      -1.78774830      -0.99738113
O        0.86430227      -2.11374830      -0.87538113
N       -1.26369773      -2.63374830      -1.35638113
H        0.11430227       0.25625170      -0.62038113
H       -1.32369773      -0.36574830       0.22261887
H       -2.59969773      -0.41474830      -1.86338113
H       -1.01869773      -3.58874830      -1.56138113
H       -2.22169773      -2.32374830      -1.42838113
H       -1.18705473       0.17861170      -2.78805113
H       -2.06987573       1.19306170      -1.53933113
C        0.90630227       2.17625170       1.29361887
C        1.35130227       1.08825170       2.34161887
C        0.96630227       3.48225170       2.10461887
H       -0.10269773       2.01325170       0.91661887
H        1.59430227       2.23725170       0.44861887
H        0.54830227       0.85625170       3.04861887
H        1.68830227       0.17125170       1.86161887
H        1.35230227       4.30925170       1.50261887
H        2.17346227       1.62109170       2.84174887
H        1.71652227       3.26403170       2.87891887
H       -0.02709873       3.75344170       2.49141887
