23
Properties=species:S:1:pos:R:3 pbc="F F F"
C        2.09836457      -0.22925200       1.22146281
C        0.82436457       0.26974800       1.87046281
O        0.23236457      -0.44225200       2.69746281
N        0.36936457       1.44474800       1.48446281
H        2.86736457       0.52474800       1.35846281
H        1.94036457      -0.35925200       0.15246281
H       -0.47563543       1.83874800       1.86546281
H        0.91836457       1.95174800       0.79846281
H        2.43652457      -1.16947900       1.68148181
C       -0.77763543      -0.30925200      -1.50153719
C       -1.21163543      -1.71025200      -1.95553719
C        0.34236457       0.16474800      -2.40153719
C       -1.90763543       0.71874800      -1.45753719
H       -0.37763543      -0.39125200      -0.49553719
H       -0.36863543      -2.39625200      -1.85753719
H       -1.47163543      -1.65425200      -3.01353719
H       -0.00563543       0.23474800      -3.43053719
H        0.67036457       1.15274800      -2.08553719
H        1.18536457      -0.52325200      -2.34453719
H       -2.61663543       0.45474800      -0.67553719
H       -1.49463543       1.69874800      -1.22453719
H       -2.42063543       0.75474800      -2.41853719
H       -2.07951543      -2.12002400      -1.41807119
