16
Properties=species:S:1:pos:R:3 pbc="F F F"
C        1.30152385      -1.82717526       0.07247138
C        1.66752385      -1.17217526       1.42047138
H        2.12952385      -2.42417526      -0.30052862
H        0.44052385      -2.48017526       0.21847138
H        1.03152385      -1.07517526      -0.66452862
H        1.78252385      -1.97717526       2.14747138
H        0.83652385      -0.54617526       1.74847138
H        2.59149785      -0.57539826       1.40909038
C       -1.02947615       0.88082474      -0.63552862
C       -1.93947615       2.12882474      -0.85652862
H       -1.12547615       0.50582474       0.38047138
H       -1.24747615       0.08682474      -1.35052862
H        0.00552385       1.17482474      -0.79852862
H       -1.87847615       2.38082474      -1.91452862
H       -1.59703925       2.98632474      -0.25866762
H       -2.97031015       1.82093174      -0.62721662
