22
Properties=species:S:1:pos:R:3 pbc="F F F"
C       -0.64610459      -2.69588670       0.81493122
C       -1.37710459      -3.81088670       1.55793122
O        0.37089541      -2.12488670       1.61993122
H       -0.21210459      -3.08788670      -0.10506878
H       -1.36810459      -1.92288670       0.56093122
H       -1.69910459      -3.40288670       2.51793122
H        1.01589541      -2.81188670       1.84093122
H       -0.71409459      -4.67505670       1.71163122
H       -2.27033459      -4.12431670       0.99767122
C        0.28889541       3.18411330      -2.23406878
C        0.33789541       1.42211330      -0.51406878
N       -0.34710459       0.48511330       0.14093122
N       -0.27610459       2.05311330      -1.50706878
N        1.56589541       1.79411330      -0.11006878
H       -1.28210459       0.22211330      -0.19206878
H        0.07389541      -0.04388670       0.89493122
H       -1.21610459       1.73411330      -1.76906878
H        2.07189541       2.52411330      -0.58306878
H        2.01289541       1.32711330       0.66793122
H        0.89689541       2.83211330      -3.07006878
H        0.89489541       3.81811330      -1.58306878
H       -0.55142459       3.78220330      -2.61635878
