23
Properties=species:S:1:pos:R:3 pbc="F F F"
C       -0.78120777       0.09394162       3.19913563
C        0.42179223       0.80094162       3.88713563
H       -1.55820777       0.81994162       2.95813563
H       -0.44720777      -0.38505838       2.28113563
H       -1.19320777      -0.66305838       3.86813563
H        1.16879223       0.03494162       4.10613563
H        0.13945223       1.28031762       4.83607563
H        0.88096223       1.50702862       3.17960563
C        2.25879223      -0.90405838      -0.34186437
C        0.26579223       0.65594162      -0.23886437
C        0.91079223      -0.44305838      -0.82986437
C       -0.99620777       1.08994162      -0.69786437
C        0.28579223      -1.10005838      -1.89486437
C       -1.61520777       0.43394162      -1.78486437
C       -0.98120777      -0.65505838      -2.40786437
H        0.74479223       1.23494162       0.50013563
H       -1.49220777       1.90094162      -0.19186437
H        2.14079223      -1.86705838       0.15613563
H        2.64379223      -0.19505838       0.38813563
H        0.75679223      -1.95805838      -2.35086437
H       -2.57520777       0.79194162      -2.11486437
H       -1.45120777      -1.16505838      -3.23786437
H        2.99284223      -1.00872038      -1.15440437
