26
Properties=species:S:1:pos:R:3 pbc="F F F"
C       -0.27814865      -0.05474329       0.19766561
C       -0.91714865      -1.24474329       0.90866561
C        1.19785135      -1.95374329       0.10766561
C        1.97985135       1.79425671      -0.26433439
C        2.18885135       0.28125671      -0.18533439
O        3.31485135      -0.22074329      -0.32233439
N        1.11085135      -0.48974329       0.01066561
H       -0.76014865       0.09725671      -0.76833439
H       -0.35514865       0.83325671       0.80766561
H       -2.00014865      -1.25574329       0.79566561
H       -0.62914865      -1.26474329       1.96066561
H        1.68885135      -2.22074329       1.04466561
H        1.36385135       2.13225671       0.56966561
H       -0.44531865      -2.07240729       0.35879861
H        0.14654135      -2.27650229       0.13149361
H        1.72769135      -2.39857329      -0.74755139
H        2.97314135       2.26419871      -0.21398339
H        1.49200135       2.07590471      -1.20914839
C       -3.69714865       1.32025671      -0.75533439
C       -4.54914865       0.58725671       0.29166561
H       -4.23714865       2.18425671      -1.14633439
H       -2.76814865       1.66225671      -0.29733439
H       -3.45714865       0.64325671      -1.57733439
H       -3.95914865      -0.23174329       0.69766561
H       -5.47233865       0.16969271      -0.13655039
H       -4.80097865       1.27112971       1.11561861
