25
Properties=species:S:1:pos:R:3 pbc="F F F"
C        1.59446835       1.44857704      -2.36755173
C        1.48246835       0.38957704      -1.30455173
C        1.65546835       0.70457704       0.04644827
C        1.20946835      -0.92942296      -1.65455173
C        1.57546835      -0.28542296       1.02844827
C        1.15546835      -1.91642296      -0.68355173
C        1.32846835      -1.59042296       0.65044827
O        1.26546835      -2.56242296       1.59044827
H        1.33946835       2.41557704      -1.93155173
H        0.86546835       1.24557704      -3.15055173
H        1.84546835       1.72857704       0.33844827
H        1.06246835      -1.19742296      -2.69255173
H        1.69646835      -0.05542296       2.07244827
H        0.98646835      -2.94742296      -0.95255173
H        1.39046835      -2.22342296       2.48344827
H        2.59539835       1.50569104      -2.82018173
C       -1.92653165       0.64957704      -0.01055173
C       -2.99653165       0.61357704      -1.09955173
S       -2.46853165       1.48757704       1.49944827
H       -1.62753165      -0.37342296       0.23344827
H       -1.04853165       1.17557704      -0.39255173
H       -3.35853165       1.63357704      -1.24855173
H       -1.45153165       1.09057704       2.27444827
H       -3.84470165      -0.02726296      -0.81683173
H       -2.53373165       0.29930304      -2.04668173
