24
Properties=species:S:1:pos:R:3 pbc="F F F"
C       -0.39545634      -1.22930663       1.52517224
C       -0.01345634      -1.77230663       2.88917224
C        1.33354366      -2.87430663       0.10017224
S       -0.41745634      -2.49030663       0.23617224
H       -1.38545634      -0.77430663       1.58717224
H        0.32754366      -0.46530663       1.26717224
H        0.98854366      -2.19930663       2.85417224
H       -0.71445634      -2.56930663       3.14017224
H        1.68954366      -3.33930663       1.01817224
H        1.49454366      -3.57030663      -0.71882776
H        1.90054366      -1.96430663      -0.09482776
H       -0.04662634      -1.00354463       3.67524124
C        0.75254366       1.29269337      -0.99982776
C        0.28854366       1.04769337      -2.42382776
C       -1.48945634       2.82069337      -0.91282776
S        0.19454366       2.84369337      -0.30182776
H        0.34554366       0.48869337      -0.40482776
H        1.82954366       1.25969337      -0.94282776
H        0.64454366       1.85069337      -3.06982776
H       -0.79345634       0.98769337      -2.47382776
H       -1.99245634       1.90469337      -0.59982776
H       -2.00845634       3.67469337      -0.48482776
H       -1.52245634       2.91969337      -1.99682776
H        0.65789366       0.07797437      -2.78883076
