20
Properties=species:S:1:pos:R:3 pbc="F F F"
C       -3.24813511       1.14406076      -2.04805039
C       -2.02213511       0.46506076      -1.46805039
O       -2.03113511       0.17506076      -0.25205039
O       -1.05713511       0.22206076      -2.22405039
H       -3.97713511       1.31906076      -1.25405039
H       -3.70613511       0.48206076      -2.78505039
H       -3.00569830       2.10301676      -2.52933039
C        3.37286489       0.59106076       0.96494961
C        1.25286489      -0.64693924       1.25994961
N        0.58086489       0.29606076       0.63094961
N        2.56186489      -0.53493924       1.43994961
N        0.61286489      -1.70393924       1.71794961
H        1.02586489       1.14006076       0.30294961
H       -0.39613511       0.14006076       0.37394961
H        3.05586489      -1.35393924       1.78394961
H        1.13686489      -2.46293924       2.11994961
H       -0.38213511      -1.82093924       1.55894961
H        2.79686489       1.51706076       0.95194961
H        3.68586489       0.37406076      -0.05905039
H        4.27602889       0.74844676       1.57283961
