16
Properties=species:S:1:pos:R:3 pbc="F F F"
C       -0.69752580       0.35524166      -1.41654769
C       -0.59152580       0.37424166      -2.94354769
H       -0.09352580      -0.45175834      -0.99954769
H       -0.33352580       1.30024166      -1.01454769
H       -1.73652580       0.21724166      -1.12154769
H        0.45447420       0.36624166      -3.20954769
H       -1.04396780      -0.52124834      -3.39454769
H       -1.06681780       1.27665166      -3.35556769
C        0.03247420       0.09024166       2.16045231
C        1.25247420      -0.82375834       2.20745231
H       -0.07652580       0.64024166       3.09445231
H        0.16147420       0.81624166       1.35945231
H       -0.86852580      -0.49275834       1.96545231
H        2.13147420      -0.23675834       2.47045231
H        1.39347420      -1.20875834       1.19845231
H        1.12741020      -1.65751834       2.91399231
