16
Properties=species:S:1:pos:R:3 pbc="F F F"
C       -0.68792905      -1.26045060      -1.31358215
C       -1.91092905      -0.72245060      -0.55158215
H       -0.42892905      -0.57845060      -2.12558215
H        0.16307095      -1.33845060      -0.63958215
H       -0.90592905      -2.24745060      -1.72558215
H       -1.71292905       0.29154940      -0.21458215
H       -2.76930805      -0.71597060      -1.23943215
H       -2.13431905      -1.35634060       0.31920785
C        1.68207095       0.35354940       1.11441785
C        0.92007095       1.63354940       0.75241785
H        2.50907095       0.57954940       1.78741785
H        1.00107095      -0.33245060       1.61541785
H        2.05607095      -0.15645060       0.22841785
H        0.15807095       1.38654940       0.01741785
H        1.60420795       2.37499940       0.31399785
H        0.42072295       2.04289940       1.64296785
