26
Properties=species:S:1:pos:R:3 pbc="F F F"
C        1.00244774       2.78771484       3.18848199
C        0.03744774       0.55671484      -0.38451801
C       -0.97255226       1.24471484       0.30648199
C        1.35844774       0.59071484       0.09748199
C       -0.67355226       1.96071484       1.47148199
C        1.65044774       1.31571484       1.26548199
C        0.64844774       2.00271484       1.95248199
H       -0.20055226       0.00571484      -1.27951801
H       -1.98555226       1.23371484      -0.07051801
H        2.14444774       0.06571484      -0.42951801
H       -1.45455226       2.49971484       1.98948199
H        2.66944774       1.34471484       1.62648199
H        0.48844774       3.73171484       3.16848199
H        2.06144774       3.04371484       3.12648199
H        0.84308774       2.25220484       4.13602529
C       -0.67455226      -2.71528516      -2.21951801
C       -2.19455226      -2.82728516      -2.32551801
C        0.07344774      -3.95328516      -2.73251801
H       -0.34755226      -1.85328516      -2.80551801
H       -0.39655226      -2.52728516      -1.18951801
H       -2.51455226      -3.72928516      -1.80951801
H       -0.19855226      -4.81728516      -2.12851801
H       -0.19755226      -4.15128516      -3.76851801
H       -2.47678226      -2.88237516      -3.38726801
H       -2.63612226      -1.91757516      -1.89256401
H        1.15725774      -3.77539516      -2.67154901
