24
Properties=species:S:1:pos:R:3 pbc="F F F"
C        3.62222023      -0.25398356      -2.06886308
C        0.90022023       1.26901644      -0.22386308
C        2.61722023       0.17801644      -1.04486308
C        2.43422023      -0.23998356       0.23513692
N        1.64322023       1.11601644      -1.31286308
N        1.35522023       0.46001644       0.72913692
H        0.05522023       1.93701644      -0.14086308
H        0.96822023       0.38601644       1.66313692
H        3.02922023      -0.97898356       0.75813692
H        4.52922023      -0.56698356      -1.55086308
H        3.87822023       0.60001644      -2.69786308
H        3.26805323      -1.07893356      -2.70449178
C       -2.60677977      -0.08998356      -0.30586308
C       -2.71777977      -1.42698356      -1.03386308
C       -2.27777977      -0.26698356       1.16113692
O       -2.32477977      -1.37198356       1.69913692
N       -1.92977977       0.81901644       1.83113692
H       -1.83177977       0.52101644      -0.76586308
H       -3.55277977       0.44301644      -0.36986308
H       -3.46977977      -2.02498356      -0.52986308
H       -1.76477977      -1.93798356      -0.97786308
H       -1.73277977       0.72101644       2.81513692
H       -1.82577977       1.72301644       1.39013692
H       -2.99369577      -1.34774356      -2.09574378
