33
Properties=species:S:1:pos:R:3 pbc="F F F"
C        0.64283295       2.52989461       0.56238231
C        1.58183295       3.60289461       1.11638231
C        1.02683295       2.06889461      -0.81561769
C        0.92283295       2.94789461      -1.89161769
C        1.54583295       0.79889461      -1.02461769
C        1.30883295       2.54689461      -3.16461769
C        1.92583295       0.39389461      -2.30261769
C        1.81383295       1.27389461      -3.36561769
H        0.65283295       1.70089461       1.26138231
H       -0.37216705       2.91289461       0.51638231
H        1.74383295       4.31889461       0.31238231
H        0.53083295       3.94489461      -1.74161769
H        1.64183295       0.11089461      -0.19661769
H        1.21783295       3.22989461      -3.99961769
H        2.30083295      -0.60510539      -2.46261769
H        2.10083295       0.96289461      -4.35661769
H        2.54882825       3.17486461       1.41922231
H        1.07346485       4.18295461       1.90066231
C       -1.40716705      -3.75010539       3.48938231
C       -1.09416705      -0.81110539       1.15238231
C       -1.67216705      -1.31010539      -0.00661769
C       -1.01116705      -1.60110539       2.28438231
C       -1.48716705      -2.90710539       2.26338231
C       -2.15016705      -2.61210539      -0.03461769
C       -2.05716705      -3.41210539       1.09938231
H       -0.73616705       0.19789461       1.17838231
H       -1.73616705      -0.69010539      -0.89161769
H       -0.56816705      -1.19810539       3.18238231
H       -2.55216705      -3.02110539      -0.94761769
H       -0.47916705      -3.53310539       4.02138231
H       -1.36216705      -4.79410539       3.17638231
H       -2.42416705      -4.42810539       1.07038231
H       -2.26403605      -3.60055539       4.16274231
