20
Properties=species:S:1:pos:R:3 pbc="F F F"
C       -0.88615073      -3.24260274      -2.06373478
C        0.06084927      -1.25560274      -0.94673478
N       -0.46415073      -1.60060274       0.22126522
N       -0.09315073      -2.01560274      -2.01773478
N        0.75384927      -0.14360274      -1.05373478
H       -0.90815073      -2.50060274       0.36426522
H       -0.40715073      -0.92460274       0.97926522
H        0.41684927      -1.73760274      -2.85973478
H        1.17884927       0.10739726      -1.94873478
H        0.89984927       0.44939726      -0.23973478
H       -0.71215073      -3.85360274      -1.17973478
H       -0.59515073      -3.82760274      -2.93873478
H       -1.94909073      -2.97232574      -2.14801478
C       -0.44015073       3.35739726       1.62426522
C        0.18984927       1.99339726       1.45026522
O       -0.46715073       0.97439726       1.77426522
O        1.34684927       1.94039726       0.98826522
H       -1.31415073       3.42039726       0.97326522
H        0.25684927       4.14439726       1.32426522
H       -0.74381073       3.51755726       2.66931522
