23
Properties=species:S:1:pos:R:3 pbc="F F F"
C       -0.81346417       2.13834992       1.57470895
C        0.33553583       0.07934992      -1.40129105
C       -0.48246417       0.78734992      -0.50429105
C        1.72453583       0.02634992      -1.16329105
C        0.07453583       1.45034992       0.59570895
C        2.26953583       0.68134992      -0.05629105
C        1.44853583       1.36934992       0.83170895
H       -0.09446417      -0.42765008      -2.25529105
H       -1.54746417       0.81234992      -0.67529105
H        2.36853583      -0.51765008      -1.84129105
H        3.33653583       0.63634992       0.12170895
H       -1.46346417       2.80634992       1.00770895
H       -0.22846417       2.74634992       2.26770895
H        1.88153583       1.85034992       1.69770895
H       -1.43206417       1.42369992       2.13739895
C       -1.55446417      -3.14265008      -0.67029105
C       -2.27746417      -2.70365008       0.60770895
H       -1.77746417      -4.18765008      -0.89529105
H       -1.85846417      -2.52865008      -1.51629105
H       -0.47746417      -3.01365008      -0.56729105
H       -1.93946417      -1.69965008       0.86370895
H       -2.04303417      -3.37711008       1.44526895
H       -3.36154417      -2.69937008       0.42131495
