33
Properties=species:S:1:pos:R:3 pbc="F F F"
C        1.97873992      -1.71170239      -1.76095014
C       -0.49826008      -1.74270239      -1.24895014
C        0.53073992      -1.67070239      -2.18795014
C       -1.85226008      -1.68570239      -1.65095014
C       -2.17526008      -1.60370239      -2.95995014
C        0.17573992      -1.58970239      -3.52095014
C       -1.15526008      -1.53970239      -3.89995014
H       -0.26126008      -1.84170239      -0.19995014
H       -2.63626008      -1.73470239      -0.90595014
H        2.13673992      -0.95370239      -0.99395014
H        2.59173992      -1.44770239      -2.61795014
H       -3.21026008      -1.57870239      -3.27195014
H        0.94273992      -1.54870239      -4.28195014
H       -1.41226008      -1.47170239      -4.94595014
H        2.31809992      -2.68587239      -1.37908014
C        0.56773992       0.14429761       1.63204986
C        0.83473992      -0.90670239       2.67704986
C        1.09873992       1.26329761       3.71004986
C       -0.47926008       2.64129761       0.49604986
C        0.00273992       2.53129761       1.94904986
O       -0.16126008       3.48329761       2.71904986
N        0.58773992       1.41029761       2.35204986
H        1.34673992       0.13229761       0.87404986
H       -0.40726008      -0.04570239       1.18304986
H        1.38473992      -1.75370239       2.27304986
H       -0.11326008      -1.23970239       3.10204986
H        0.28073992       1.38429761       4.42004986
H       -0.50526008       1.66429761       0.02304986
H        1.40593992      -0.36281239       3.44380886
H        1.46755992       0.22697761       3.71438886
H        1.91966992       1.96797761       3.90882286
H       -1.49415008       3.06555761       0.49453986
H        0.20920992       3.28917761      -0.06632014
