20
Properties=species:S:1:pos:R:3 pbc="F F F"
C       -0.18004713      -1.63699327      -1.63958460
C        0.47295287      -0.24899327      -1.61658460
O        1.53295287      -0.05999327      -1.02458460
N       -0.10904713       0.70400673      -2.32858460
H       -0.88304713      -1.68199327      -2.47458460
H       -0.74704713      -1.79399327      -0.72158460
H        0.34895287       1.60300673      -2.38058460
H       -0.92604713       0.50900673      -2.88858460
H        0.57323287      -2.42638327      -1.77897460
C       -0.53404713       0.27300673       1.71241540
C        0.67795287       0.37800673       2.62041540
C       -1.83504713       0.53300673       2.33641540
H       -0.39604713       0.99700673       0.90741540
H       -0.55404713      -0.72699327       1.27841540
H        0.66095287       1.34600673       3.12641540
H       -2.02304713      -0.20399327       3.11841540
H       -1.83004713       1.52700673       2.78641540
H        1.57714287       0.30953673       1.99052540
H        0.68811287      -0.40339327       3.39456540
H       -2.64390713       0.47903673       1.59288540
