24
Properties=species:S:1:pos:R:3 pbc="F F F"
C       -1.24014944      -2.32744518       2.05692677
C       -2.74214944      -2.35044518       1.75292677
H       -0.76214944      -3.25444518       1.75892677
H       -0.77314944      -1.50444518       1.52192677
H       -1.08214944      -2.18044518       3.12492677
H       -3.13814944      -1.35144518       1.92492677
H       -3.27504944      -3.07295318       2.38853677
H       -2.91037944      -2.61591118       0.69877677
C        2.50885056       2.68255482       0.30792677
C       -0.77014944       0.76955482      -0.12107323
C       -0.36914944      -0.29844518      -0.90607323
C        0.17785056       1.73055482       0.27692677
C        1.51885056       1.60555482      -0.08607323
C        0.96285056      -0.40744518      -1.32107323
C        1.90185056       0.54855482      -0.91507323
O       -1.31214944      -1.20144518      -1.31707323
H       -1.80314944       0.85955482       0.17892677
H       -0.13714944       2.56955482       0.87592677
H        1.26685056      -1.22544518      -1.95807323
H       -1.00114944      -1.71044518      -2.09507323
H        3.40285056       2.20255482       0.70392677
H        2.08785056       3.30255482       1.09992677
H        2.92985056       0.45755482      -1.23707323
H        2.80200056       3.32189482      -0.53783323
