19
Properties=species:S:1:pos:R:3 pbc="F F F"
C       -0.61369031       2.11648803      -0.18306871
C       -0.88469031       2.76148803      -1.53406871
H       -0.86469031       2.79848803       0.62893129
H       -1.22969031       1.22748803      -0.07806871
H        0.44330969       1.85348803      -0.10206871
H       -0.53669031       2.08748803      -2.32006871
H       -0.34221031       3.71496803      -1.61521871
H       -1.96674031       2.90287803      -1.67256871
C        0.48430969      -1.11951197       0.48893129
C        1.49630969      -1.70851197       1.48493129
C       -0.45369031      -2.12651197      -0.21906871
H       -0.12369031      -0.39851197       1.03493129
H        1.03030969      -0.58151197      -0.29006871
H        1.96030969      -2.58851197       1.02993129
H        0.12530969      -2.72251197      -0.92606871
H       -0.89769031      -2.79551197       0.51993129
H        1.01489969      -1.99601197       2.43128129
H        2.30772969      -0.98740197       1.66270129
H       -1.26064031      -1.60256197      -0.75227871
