26
Properties=species:S:1:pos:R:3 pbc="F F F"
C       -0.55411916      -3.66655203      -0.92669184
C        0.88788084      -3.42955203      -1.40969184
H       -0.80611916      -4.72555203      -1.01169184
H       -0.66111916      -3.37055203       0.11630816
H       -1.27211916      -3.08155203      -1.50269184
H        1.10588084      -2.36255203      -1.35869184
H        0.99320084      -3.75561203      -2.45496184
H        1.61821084      -3.94958203      -0.77235184
C       -1.05511916       0.08544797      -1.16669184
C       -1.29411916       1.02944797      -2.35269184
C       -0.32011916       0.67444797       0.01930816
C       -0.15811916       2.01644797       0.21930816
C        0.23188084      -0.17655203       0.93530816
C        0.51788084       2.48744797       1.26930816
C        0.90288084       0.31244797       2.03530816
C        1.05588084       1.65544797       2.18930816
H       -2.02411916      -0.27055203      -0.81369184
H       -0.50211916      -0.78155203      -1.51669184
H       -1.92411916       1.85344797      -2.01669184
H       -0.59011916       2.72544797      -0.46669184
H        0.11988084      -1.24455203       0.81730816
H        0.62588084       3.55644797       1.39430816
H        1.32388084      -0.36855203       2.76330816
H        1.59588084       2.05144797       3.03930816
H       -1.80313916       0.47967797      -3.15808184
H       -0.35942916       1.46573797      -2.73480184
