24
Properties=species:S:1:pos:R:3 pbc="F F F"
C       -2.58395914       0.39381155       2.37284221
C        0.69504086      -0.07318845       0.51484221
C        1.42204086       1.02381155       0.89784221
C       -0.59695914      -0.27318845       0.97984221
C       -1.18095914       0.63081155       1.85584221
C        0.86904086       1.93281155       1.77484221
C       -0.43895914       1.74381155       2.25184221
H        1.15304086      -0.80218845      -0.13215779
H        2.42804086       1.16381155       0.52584221
H       -1.13995914      -1.15518845       0.66984221
H        1.43904086       2.79681155       2.09084221
H       -2.63295914       0.69581155       3.41984221
H       -2.78195914      -0.67918845       2.34884221
H       -0.86495914       2.45981155       2.94084221
H       -3.37624414       0.90170155       1.80334221
C        0.91304086      -1.61318845      -2.60815779
C        1.07604086      -2.37518845      -3.90815779
O       -0.07895914      -0.61818845      -2.76115779
H        0.62104086      -2.30018845      -1.81415779
H        1.86004086      -1.17918845      -2.34215779
H        1.87404086      -3.10318845      -3.75815779
H       -0.90495914      -0.92618845      -2.33315779
H        1.33745886      -1.67206845      -4.71269779
H        0.16386786      -2.95506845      -4.11230779
