26
Properties=species:S:1:pos:R:3 pbc="F F F"
C        1.12004212       1.13192343      -2.02637110
C        0.60404212       2.57492343      -2.02337110
C        2.41104212       0.96492343      -1.26437110
O        3.48204212       1.26692343      -1.83537110
O        2.35804212       0.49892343      -0.11637110
H        0.34304212       0.48992343      -1.61437110
H        1.30804212       0.79292343      -3.03637110
H        0.26404212       2.79892343      -1.01137110
H       -0.22860288       2.65970143      -2.73717510
H        1.39258512       3.29775443      -2.27972010
C       -3.62995788      -1.43307657      -0.79237110
C       -0.82795788       0.39992343       1.05062890
C       -1.89995788       0.13192343       0.18662890
C       -0.29095788      -0.62707657       1.82362890
C       -2.43595788      -1.16007657       0.08762890
C       -0.82195788      -1.91707657       1.74162890
C       -1.88795788      -2.17807657       0.87862890
O        0.74104212      -0.34007657       2.66362890
H       -0.42595788       1.39992343       1.11862890
H       -2.31895788       0.93492343      -0.40437110
H        1.09104212       0.52992343       2.45462890
H       -0.39895788      -2.70307657       2.34662890
H       -4.16195788      -0.49807657      -0.96337110
H       -4.30695788      -2.06707657      -0.21737110
H       -2.30195788      -3.17607657       0.82662890
H       -3.44214888      -1.92643657      -1.75742210
