28
Properties=species:S:1:pos:R:3 pbc="F F F"
C       -3.77165253       3.75972902      -1.59626563
C       -1.27065253       1.53272902      -0.19826563
C       -2.67065253       3.11072902      -0.80826563
C       -1.95365253       3.56672902       0.25673437
N       -2.21865253       1.83272902      -1.07626563
N       -1.08865253       2.57172902       0.61273437
H       -0.77165253       0.57172902      -0.20626563
H       -0.42265253       2.62272902       1.37573437
H       -1.98765253       4.50572902       0.77873437
H       -4.67265253       3.71572902      -0.98626563
H       -3.91865253       3.14572902      -2.49126563
H       -3.57618253       4.79579902      -1.90987563
C       -0.37765253      -2.34627098       2.51173437
C        0.25834747      -1.94627098       0.08573437
C        0.65234747      -2.28527098       1.38373437
C        1.21834747      -1.77927098      -0.94026563
C        2.60234747      -1.93827098      -0.65426563
C        2.02634747      -2.47727098       1.63973437
C        2.99134747      -2.30727098       0.63973437
O        3.59434747      -1.66627098      -1.58026563
H       -0.79665253      -1.81527098      -0.12226563
H        0.89834747      -1.57727098      -1.95626563
H       -0.03865253      -3.04927098       3.26173437
H       -1.33565253      -2.68727098       2.11773437
H        2.33634747      -2.76027098       2.63573437
H        3.24934747      -1.35227098      -2.43326563
H        4.03934747      -2.45527098       0.85873437
H       -0.57755253      -1.35955098       2.95493437
