19
Properties=species:S:1:pos:R:3 pbc="F F F"
C       -0.07122730      -1.15622732      -0.40999707
C        0.93077270      -1.59222732      -1.49199707
C       -0.94222730      -2.30122732       0.14500293
H        0.48477270      -0.71922732       0.42200293
H       -0.72422730      -0.38122732      -0.79799707
H        0.38177270      -2.05222732      -2.31599707
H       -0.30322730      -3.02022732       0.65600293
H        1.65459270      -2.31604732      -1.08929707
H        1.46730270      -0.72513732      -1.90465707
H       -1.64436730      -1.89404732       0.88743293
H       -1.45795730      -2.82560732      -0.67294707
C       -0.61622730       2.47277268       0.47900293
C        0.69677270       2.49577268       1.24700293
H       -0.42622730       2.32377268      -0.58499707
H       -1.24022730       1.65177268       0.83400293
H       -1.15522730       3.41277268       0.61600293
H        1.23477270       1.56177268       1.08800293
H        1.30482270       3.35133268       0.91794293
H        0.44888270       2.59912268       2.31371293
