23
Properties=species:S:1:pos:R:3 pbc="F F F"
C        2.50371584      -0.22141416       2.31994531
C        3.93571584      -0.30341416       2.83994531
H        2.50271584       0.15858584       1.30394531
H        2.04471584      -1.20841416       2.32294531
H        1.90971584       0.44358584       2.94594531
H        4.50271584      -0.99841416       2.22094531
H        4.39419584       0.69532584       2.79187531
H        3.90232584      -0.68445416       3.87129531
C       -1.26228416       1.39858584      -2.91305469
C       -0.96128416       0.47358584       0.77294531
C       -0.92328416      -0.89441416       0.73994531
C       -1.05728416       1.20758584      -0.41005469
C       -1.11728416       0.58158584      -1.65105469
C       -0.95128416      -1.53441416      -0.49305469
C       -1.05528416      -0.80241416      -1.68005469
H       -0.91428416       0.98358584       1.72194531
H       -0.82828416      -1.46441416       1.65194531
H       -1.08328416       2.28558584      -0.35305469
H       -0.89728416      -2.60641416      -0.52705469
H       -0.45728416       1.14658584      -3.60505469
H       -1.14828416       2.45358584      -2.65505469
H       -1.11428416      -1.33241416      -2.61205469
H       -2.22563416       1.25642584      -3.42467469
