18
Properties=species:S:1:pos:R:3 pbc="F F F"
C        1.56961319      -1.71742407       1.05209474
C        0.59561319      -0.63242407       1.53909474
O        0.73761319       0.55557593       1.16509474
O       -0.33238681      -1.00042407       2.30409474
H        1.01161319      -2.34542407       0.35809474
H        1.88061319      -2.33942407       1.89509474
H        2.47006319      -1.32212407       0.55922474
C       -0.61738681       1.32557593      -1.67790526
C        0.10561319       0.68657593      -2.87090526
C       -2.05338681       0.82557593      -1.51190526
H       -0.04538681       1.12057593      -0.80690526
H       -0.64138681       2.40857593      -1.81490526
H       -0.42338681       0.94557593      -3.78990526
H        0.11861319      -0.39842407      -2.75190526
H       -2.65038681       1.16257593      -2.36690526
H       -2.03638681      -0.26242407      -1.52090526
H        1.13382719       1.07549593      -2.90986926
H       -2.48407481       1.20224593      -0.57242526
