23
Properties=species:S:1:pos:R:3 pbc="F F F"
C        3.11283689      -0.67975987       0.44232308
C       -0.42116311       0.76324013       0.44132308
C        0.92283689       0.55224013       0.13032308
C       -1.04516311      -0.03975987       1.39632308
C        1.66483689      -0.42475987       0.80132308
C       -0.31116311      -1.01175987       2.07132308
C        1.03683689      -1.20075987       1.76732308
H       -0.98116311       1.52324013      -0.08367692
H        1.38583689       1.14324013      -0.64567692
H       -2.09116311       0.10024013       1.62832308
H       -0.79016311      -1.62675987       2.81932308
H        3.14783689      -0.94475987      -0.60767692
H        3.50283689      -1.51375987       1.02832308
H        1.59483689      -1.96275987       2.29232308
H        3.77216389       0.19165013       0.56856208
C       -2.13416311       0.22924013      -2.78567692
C       -2.47316311       1.60924013      -3.31867692
H       -2.80316311      -0.51375987      -3.22167692
H       -1.10716311      -0.02475987      -3.04767692
H       -2.23516311       0.20724013      -1.70167692
H       -1.72316311       2.30624013      -2.94267692
H       -3.45801711       1.92028013      -2.94010792
H       -2.41500941       1.61139013      -4.41713652
