16
Properties=species:S:1:pos:R:3 pbc="F F F"
C        1.39338524      -1.48602728      -0.92366937
C        1.73738524      -2.00802728       0.46433063
H        1.54638524      -2.27102728      -1.66366937
H        0.34738524      -1.17502728      -0.95666937
H        2.02138524      -0.62602728      -1.16266937
H        1.54638524      -1.19202728       1.16333063
H        2.80190524      -2.27359128       0.54354763
H        1.05815524      -2.82529528       0.74843863
C       -1.09761476       1.14097272       0.19833063
C       -2.03061476       2.34497272       0.26233063
H       -1.23961476       0.49597272       1.06733063
H       -1.30061476       0.56697272      -0.70766937
H       -0.06061476       1.47897272       0.16533063
H       -1.81161476       2.99997272      -0.58266937
H       -1.86298476       2.90198472       1.19594563
H       -3.07643476       2.01574572       0.17366463
