30
Properties=species:S:1:pos:R:3 pbc="F F F"
C       -0.77979489      -5.00116237      -1.76096025
C        0.92720511      -1.77416237      -0.72396025
C        0.76420511      -0.98716237      -1.84996025
C        0.42620511      -3.06916237      -0.69596025
C       -0.24179489      -3.59316237      -1.79096025
C        0.11520511      -1.50416237      -2.95696025
C       -0.38479489      -2.80216237      -2.92896025
H        1.44420511      -1.37716237       0.13703975
H        1.12920511       0.02683763      -1.85896025
H        0.58220511      -3.67516237       0.18503975
H       -0.01479489      -0.89816237      -3.83996025
H       -0.34979489      -5.52016237      -0.90696025
H       -0.45479489      -5.52516237      -2.65796025
H       -0.85779489      -3.19716237      -3.81596025
H       -1.87339689      -5.06637737      -1.66206025
C       -0.82179489       5.05383763       1.62903975
C        0.43120511       0.95083763       1.95503975
C       -0.41679489       1.49983763       2.90703975
C        0.89020511       1.73683763       0.90403975
C       -0.82679489       2.81383763       2.79003975
C        0.49220511       3.06283763       0.80303975
C       -0.38879489       3.60683763       1.73303975
H        0.72320511      -0.08516237       2.02403975
H       -0.77779489       0.89683763       3.72603975
H        1.55220511       1.31383763       0.16503975
H       -1.46679489       3.22883763       3.55503975
H        0.86620511       3.66883763      -0.00896025
H       -0.18679489       5.55383763       0.90403975
H       -0.66679489       5.54083763       2.59103975
H       -1.86325889       5.18939963       1.30196975
