31
Properties=species:S:1:pos:R:3 pbc="F F F"
C       -2.87615357      -4.23448871      -1.14729068
C       -0.13615357      -1.57848871      -1.00029068
C       -1.38315357      -2.20848871      -1.20129068
C        0.89884643      -2.29348871      -0.43729068
C       -1.56715357      -3.55348871      -0.87329068
C        0.73184643      -3.62948871      -0.15229068
C       -0.49115357      -4.27348871      -0.36529068
H       -0.00615357      -0.53448871      -1.25029068
H       -2.20215357      -1.63748871      -1.61029068
H        1.85184643      -1.81748871      -0.25229068
H        1.56084643      -4.18948871       0.25870932
H       -3.66715357      -3.66948871      -0.65329068
H       -2.87115357      -5.23948871      -0.72329068
H       -0.59815357      -5.32448871      -0.13129068
H       -3.09285057      -4.28973971      -2.22431868
C       -0.26215357       4.27551129      -1.64029068
C        1.29184643       1.48451129       0.42170932
C        1.04084643       1.92051129       1.70070932
C        0.87484643       2.24351129      -0.67329068
C        0.20584643       3.44051129      -0.48629068
C        0.35084643       3.09551129       1.89570932
C       -0.06915357       3.84451129       0.80970932
O        1.45984643       1.16651129       2.75970932
H        1.81984643       0.55551129       0.27470932
H        1.07484643       1.88851129      -1.67429068
H        0.13884643       3.43851129       2.89770932
H        1.21084643       1.55851129       3.60370932
H       -0.71615357       5.18751129      -1.25829068
H       -1.03915357       3.71751129      -2.16329068
H       -0.59615357       4.77351129       0.98570932
H        0.52585843       4.54609829      -2.35849668
