26
Properties=species:S:1:pos:R:3 pbc="F F F"
C        1.97676927      -1.90691358       0.78526868
C        2.86976927      -0.94591358       1.58326868
C        0.96176927      -2.69091358       1.62626868
H        1.44176927      -1.33591358       0.02826868
H        2.61076927      -2.62691358       0.26726868
H        2.25376927      -0.13191358       1.96826868
H        1.49376927      -3.34391358       2.31926868
H        3.64300927      -0.51280758       0.93171978
H        3.32973927      -1.45555158       2.44274318
H        0.32288927      -2.01088458       2.20884158
H        0.34518927      -3.32923358       0.97635988
C       -2.85123073      -0.44591358      -1.33173132
C        0.64676927       0.99608642      -1.17273132
C        0.53476927       1.89508642      -0.11973132
C       -0.44823073       0.23408642      -1.56273132
C       -1.66923073       0.37608642      -0.91473132
C       -0.67923073       2.03608642       0.54326868
C       -1.77523073       1.27208642       0.14326868
H        1.59376927       0.88208642      -1.68273132
H        1.39276927       2.47808642       0.18026868
H       -0.34623073      -0.46291358      -2.38073132
H       -0.77823073       2.73408642       1.36326868
H       -3.33823073      -0.83391358      -0.43973132
H       -2.49723073      -1.30091358      -1.90873132
H       -2.71323073       1.38008642       0.66826868
H       -3.59114073       0.10129142      -1.93430432
