16
Properties=species:S:1:pos:R:3 pbc="F F F"
C        1.37968006       0.19432802      -1.79370283
C        2.47568006      -0.30667198      -0.84270283
H        1.79868006       0.90232802      -2.51070283
H        0.95268006      -0.64667198      -2.34070283
H        0.57768006       0.67632802      -1.23970283
H        2.00368006      -0.95467198      -0.10370283
H        2.96296006       0.53545872      -0.32950283
H        3.20772006      -0.91634398      -1.39263283
C       -1.57531994      -0.01667198       0.64729717
C       -2.27631994       0.12732802       1.99029717
H       -1.99931994      -0.85167198       0.09129717
H       -1.70631994       0.89532802       0.06629717
H       -0.50931994      -0.18867198       0.79729717
H       -3.35231994       0.20332802       1.84429717
H       -1.93031994       1.06432802       2.42329717
H       -2.05012994      -0.69895398       2.68029717
