32
Properties=species:S:1:pos:R:3 pbc="F F F"
C       -3.78796848       0.92832813      -0.63071843
C       -2.04596848       0.18332813       1.04028157
C       -2.59396848       1.20132813       0.24928157
C       -0.97996848       0.44432813       1.90328157
C       -2.05796848       2.49332813       0.34828157
C       -0.44896848       1.73432813       1.98528157
C       -0.98596848       2.76132813       1.21228157
O        0.58303152       2.02132813       2.82528157
H       -2.45996848      -0.81467187       0.98828157
H       -0.55696848      -0.34167187       2.50828157
H       -4.31996848       1.86332813      -0.80171843
H       -4.46496848       0.29432813      -0.05571843
H       -2.47696848       3.29632813      -0.24271843
H       -0.58396848       3.76132813       1.28028157
H        0.93303152       2.89132813       2.61628157
H       -3.60015948       0.43496813      -1.59576943
C        0.76103152      -3.37567187      -3.26971843
C        0.87603152      -0.24467187      -1.06871843
C        1.86303152      -0.60267187      -0.14571843
C        0.51003152      -1.13767187      -2.07871843
C        1.11403152      -2.39867187      -2.16971843
C        2.47603152      -1.85567187      -0.23371843
C        2.09403152      -2.74467187      -1.23271843
O        2.23403152       0.28732813       0.82428157
H        0.39403152       0.71432813      -0.98071843
H       -0.23096848      -0.82767187      -2.79171843
H        3.23603152      -2.13967187       0.48128157
H        2.91103152      -0.06667187       1.40628157
H        1.15503152      -4.36667187      -3.03271843
H        1.29603152      -3.02867187      -4.15571843
H        2.57303152      -3.71467187      -1.28871843
H       -0.30846348      -3.45811187      -3.51340943
