15
Properties=species:S:1:pos:R:3 pbc="F F F"
C        1.69171443      -2.31357329      -0.85094870
O        1.95171443      -0.93857329      -0.62494870
H        2.89571443      -0.73857329      -0.79894870
H        0.77071443      -2.57557329      -0.32694870
H        2.50371443      -2.91857329      -0.44294870
H        1.57186443      -2.52097329      -1.92454870
C       -0.66928557      -0.09657329       1.43605130
C       -0.97928557       0.89742671       0.33305130
O       -0.30228557       0.93742671      -0.69194870
N       -2.00728557       1.71242671       0.52105130
H        0.41071443      -0.19757329       1.53505130
H       -1.07328557      -1.05857329       1.11705130
H       -2.21828557       2.37742671      -0.20994870
H       -2.54528557       1.70742671       1.36805130
H       -1.11681557       0.17266671       2.40415130
