20
Properties=species:S:1:pos:R:3 pbc="F F F"
C        1.30863628       0.80363191      -1.09490066
C        2.52563628       1.14463191      -1.96390066
O        1.29063628      -0.57136809      -0.76190066
H        1.32963628       1.39363191      -0.17990066
H        0.39663628       1.05063191      -1.63990066
H        3.42663628       0.77163191      -1.47190066
H        1.77063628      -0.68636809       0.07309934
H        2.60090628       2.23534091      -2.08510066
H        2.42687628       0.63704491      -2.93480066
C       -1.47836372      -0.88536809       0.95309934
C       -0.86736372       0.21263191       1.79809934
C       -2.98436372      -0.70736809       1.11809934
H       -1.14836372      -1.87036809       1.28509934
H       -1.22536372      -0.73036809      -0.09590066
H       -0.83536372      -0.11636809       2.83509934
H        0.13263628       0.48663191       1.47109934
H       -3.48636372      -0.87936809       0.16509934
H       -1.57455372       1.05026391       1.70719934
H       -3.09529372       0.34457391       1.41989934
H       -3.37998372      -1.38814709       1.88619934
