23
Properties=species:S:1:pos:R:3 pbc="F F F"
C       -0.61276014       2.12104557       2.95605352
C       -0.23876014       3.48204557       3.54305352
H        0.15923986       1.80404557       2.25805352
H       -0.69076014       1.38404557       3.75505352
H       -1.54976014       2.16104557       2.41205352
H       -0.89276014       3.70004557       4.38705352
H       -0.38531014       4.24134557       2.76076152
H        0.80522986       3.46386557       3.88911152
C       -1.09776014      -2.73495443      -2.12894648
C        0.45423986      -0.49895443       0.54105352
C        1.11623986       0.45704557      -0.25394648
C       -0.28276014      -1.51995443      -0.06694648
C       -0.36676014      -1.59995443      -1.46894648
C        1.02523986       0.37804557      -1.65694648
C        0.28523986      -0.64695443      -2.25194648
H        0.52023986      -0.45095443       1.62005352
H        1.68823986       1.25004557       0.21005352
H       -0.77676014      -2.25995443       0.54205352
H        1.51423986       1.12004557      -2.27294648
H       -1.30576014      -2.49495443      -3.17294648
H       -2.05376014      -2.83095443      -1.61594648
H        0.16823986      -0.68995443      -3.32094648
H       -0.56267014      -3.69407443      -2.06764948
