20
Properties=species:S:1:pos:R:3 pbc="F F F"
C        0.40694188       0.72853147       2.83616967
C        1.15894188       0.51053147      -0.70583033
C        0.40794188       0.80853147       1.33716967
C       -0.44105812       1.44053147       0.48516967
N        1.39894188       0.23553147       0.57016967
N        0.04294188       1.22453147      -0.78883033
H        1.67494188       0.06353147      -1.53883033
H       -0.36505812       1.54553147      -1.65983033
H       -1.32405812       2.00453147       0.75816967
H        0.41394188       1.73153147       3.23216967
H        1.34594188       0.27053147       3.15116967
H       -0.42201812       0.14165347       3.25854967
C       -0.59005812      -2.13246853      -1.84583033
C       -2.06805812      -2.40446853      -1.59383033
H       -0.18205812      -2.88146853      -2.52383033
H       -0.47105812      -1.14746853      -2.29283033
H       -0.04605812      -2.16346853      -0.90183033
H       -2.41605812      -1.67546853      -0.86083033
H       -2.18707812      -3.41614653      -1.17869033
H       -2.64826812      -2.26478853      -2.51787033
