24
Properties=species:S:1:pos:R:3 pbc="F F F"
C       -0.80221518       2.22847248       1.88668645
C       -1.06821518       3.27447248       2.96768645
O       -0.64121518       2.87447248       0.63768645
H        0.10978482       1.67647248       2.12168645
H       -1.64221518       1.53247248       1.83768645
H       -0.24221518       3.98447248       2.94968645
H        0.30878482       3.14847248       0.62068645
H       -1.10232618       2.79616248       3.95766645
H       -1.98756418       3.83420248       2.74074645
C        2.79478482      -1.31052752      -0.34431355
C       -0.82321518      -0.26352752      -0.93931355
C       -1.40721518      -1.46752752      -1.33131355
C        0.54078482      -0.21552752      -0.62731355
C        1.32478482      -1.36952752      -0.67631355
C       -0.62921518      -2.62452752      -1.38931355
C        0.73178482      -2.57552752      -1.06131355
H       -1.42021518       0.63747248      -0.89231355
H       -2.45421518      -1.50952752      -1.59231355
H        0.98578482       0.72647248      -0.33831355
H       -1.07421518      -3.56852752      -1.66831355
H        2.97278482      -1.90852752       0.54668645
H        3.07578482      -0.28052752      -0.11431355
H        1.31278482      -3.48552752      -1.09331355
H        3.44570882      -1.68688752      -1.14721355
