20
Properties=species:S:1:pos:R:3 pbc="F F F"
C       -1.60142070      -0.92047448       2.46844677
C       -1.16942070      -2.17547448       3.23044677
H       -0.77242070      -0.21947448       2.38244677
H       -1.94342070      -1.19847448       1.47244677
H       -2.42442070      -0.43547448       2.98844677
H       -1.99042070      -2.88447448       3.28044677
H       -0.85494070      -1.91466448       4.25175677
H       -0.34377070      -2.67955448       2.70680677
C       -0.27242070      -0.02647448      -0.66755323
C       -1.18142070      -0.31047448      -1.86755323
C        1.26357930       2.30152552      -0.92055323
S        1.41557930       0.51052552      -1.08655323
H       -0.72442070       0.71952552      -0.01955323
H       -0.19042070      -0.95247448      -0.09955323
H       -2.17642070      -0.57447448      -1.50755323
H       -0.77542070      -1.16547448      -2.40655323
H        0.87357930       2.55152552       0.06644677
H        2.24257930       2.76352552      -1.04455323
H        0.59057930       2.69752552      -1.67555323
H       -1.25040070       0.53595552      -2.56669323
