27
Properties=species:S:1:pos:R:3 pbc="F F F"
C       -3.61336958      -0.11823190       0.11212458
C       -1.00636958       0.27976810      -0.34487542
C       -2.37836958       0.11776810      -0.77687542
C       -0.22736958       0.45776810      -1.51087542
C       -2.33936958       0.21176810      -2.15187542
C        1.06663042       0.54376810       0.94112458
C        1.77463042       0.69176810      -0.23387542
C       -0.34136958       0.28576810       0.90212458
C        1.13363042       0.67376810      -1.46187542
N       -1.06836958       0.44576810      -2.58187542
H        1.57563042       0.62576810       1.88712458
H        2.84063042       0.85976810      -0.19387542
H       -0.90736958       0.13476810       1.80612458
H        1.69163042       0.81776810      -2.37587542
H       -4.42536958       0.51276810      -0.23987542
H       -3.37236958       0.17776810       1.13412458
H       -3.20836958       0.12176810      -2.79387542
H       -0.78636958       0.48976810      -3.55887542
H       -3.97526758      -1.15691190       0.09858458
C        2.85463042      -1.00923190       3.57012458
C        3.58763042      -2.09223190       2.73812458
H        3.02763042      -1.17823190       4.63412458
H        3.24563042      -0.02523190       3.30512458
H        1.78363042      -1.03023190       3.37412458
H        3.34363042      -1.92223190       1.68912458
H        3.24289942      -3.09657190       3.02528458
H        4.68155742      -2.03086190       2.83588458
