19
Properties=species:S:1:pos:R:3 pbc="F F F"
C        1.58509946       0.50153527       2.65531423
O        2.11509946       0.61953527       1.34331423
H        2.89609946       1.21653527       1.36831423
H        0.65209946      -0.05846473       2.60131423
H        1.36609946       1.48953527       3.06231423
H        2.27768146      -0.04017473       3.31628423
C       -2.47090054      -0.28546473       0.22831423
C       -0.39790054      -0.24546473      -1.12168577
N        0.90009946      -0.04646473      -1.18568577
N       -1.02890054      -0.09146473       0.03031423
N       -1.06390054      -0.59146473      -2.20568577
H        1.41509946       0.21153527      -0.35068577
H        1.38309946      -0.14546473      -2.06768577
H       -0.49190054       0.25653527       0.81131423
H       -2.06390054      -0.69446473      -2.17668577
H       -0.58090054      -0.66346473      -3.08668577
H       -3.02890054      -0.43046473      -0.69768577
H       -2.86090054       0.62653527       0.68531423
H       -2.66483154      -1.11566473       0.92341423
