19
Properties=species:S:1:pos:R:3 pbc="F F F"
C       -0.43388907       1.30779089      -0.72091302
C       -1.19888907       2.50679089      -1.27391302
C       -0.00988907       0.37679089      -1.82591302
H        0.43511093       1.63879089      -0.15891302
H       -1.07788907       0.73279089      -0.05391302
H       -1.73288907       2.18079089      -2.16891302
H        0.74411093       0.85879089      -2.44691302
H        0.38011093      -0.53720911      -1.38591302
H       -0.86488907       0.10779089      -2.44491302
H       -1.97526507       2.82394089      -0.56211302
H       -0.54114907       3.33487089      -1.57666002
C        0.55811093      -1.61620911       1.30308698
C        1.06111093      -2.47820911       2.47708698
H        0.35911093      -0.59920911       1.64208698
H        1.32511093      -1.58320911       0.53008698
H       -0.34388907      -2.03820911       0.86008698
H        1.15111093      -3.50120911       2.12608698
H        0.36458093      -2.44006911       3.32760698
H        2.05609093      -2.13392911       2.79565698
