27
Properties=species:S:1:pos:R:3 pbc="F F F"
C        1.36629374       0.79303596       0.30916186
C        2.47229374       1.31103596       1.21716186
C        0.67129374       1.87203596      -0.45983814
C        1.11829374       3.09003596      -0.86083814
C       -0.96670626       2.88203596      -1.52183814
N       -0.64170626       1.76703596      -0.87383814
N        0.07929374       3.70103596      -1.52483814
H        1.77029374       0.05803596      -0.38783814
H        0.61529374       0.30103596       0.92916186
H        2.07629374       2.17203596       1.75716186
H        2.09929374       3.50703596      -0.68883814
H       -1.93270626       3.09703596      -1.96683814
H        0.09529374       4.62403596      -1.94583814
H        3.35009374       1.61729596       0.62923186
H        2.75359374       0.55656596       1.96658186
C        0.67929374      -3.94296404       1.64316186
C       -0.05270626      -2.34396404      -0.26083814
C       -0.23570626      -3.00496404       0.91216186
C       -2.06670626      -1.86196404       0.48316186
N       -1.20670626      -1.63396404      -0.50383814
N       -1.50870626      -2.69696404       1.35416186
H        0.83929374      -2.35996404      -0.87183814
H       -1.37170626      -1.00196404      -1.28183814
H        1.71129374      -3.62396404       1.49216186
H        0.55829374      -4.92796404       1.19316186
H       -3.06270626      -1.44096404       0.55616186
H        0.47023374      -4.01337104       2.72081186
