30
Properties=species:S:1:pos:R:3 pbc="F F F"
C        1.32155818      -0.76386504      -0.44089954
C        2.06355818      -2.09386504      -0.35589954
C        2.05255818       0.37113496       0.21910046
C        2.70455818       1.32413496      -0.56389954
C        2.13655818       0.45113496       1.62110046
C        3.44455818       2.34913496       0.03110046
C        2.87355818       1.47213496       2.22910046
C        3.53555818       2.42813496       1.43410046
H        1.11355818      -0.52386504      -1.48489954
H        0.36555818      -0.85986504       0.07210046
H        2.25655818      -2.24786504       0.70210046
H        2.58755818       1.28113496      -1.63289954
H        1.64255818      -0.28886504       2.23010046
H        3.93355818       3.09113496      -0.58489954
H        2.93955818       1.52013496       3.30810046
H        4.10755818       3.22113496       1.89810046
H        3.01012818      -2.05059504      -0.91457954
H        1.43023818      -2.93443504      -0.67580954
C       -4.24444182      -2.78386504      -0.46589954
C       -2.23844182      -1.19686504      -0.98289954
C       -3.49844182      -1.47086504      -0.55089954
C       -3.23444182       0.71913496      -0.55889954
N       -2.09844182       0.17613496      -0.97689954
N       -4.10244182      -0.25486504      -0.29189954
H       -1.52544182      -1.90986504      -1.36189954
H       -1.28544182       0.71813496      -1.26789954
H       -4.70244182      -2.94386504      -1.44389954
H       -5.05644182      -2.69086504       0.25710046
H       -3.42944182       1.78313496      -0.48889954
H       -3.63830182      -3.67020504      -0.22715954
