14
Properties=species:S:1:pos:R:3 pbc="F F F"
C        1.30744021       1.47765597       1.12768949
N        0.13944021       0.63765597       1.47268949
H       -0.37855979       0.38865597       0.63068949
H        0.43244021      -0.22634403       1.91068949
H       -0.49755979       1.11165597       2.10168949
H        1.91844021       0.98165597       0.36868949
H        1.93244021       1.61665597       2.01568949
H        1.01443821       2.47121597       0.75757949
C       -1.10855979      -1.57734403      -1.54431051
O       -0.33955979      -0.49034403      -1.07431051
H        0.60144021      -0.65634403      -1.30631051
H       -1.62655979      -2.02034403      -0.69431051
H       -1.85928379      -1.20664403      -2.25775051
H       -0.45516679      -2.35032203      -1.97510051
