32
Properties=species:S:1:pos:R:3 pbc="F F F"
C       -0.16506395      -2.17013129      -0.44383931
C       -0.93206395      -1.82513129      -1.71783931
C        1.96693605      -2.88513129      -1.46583931
N        1.28393605      -2.09713129      -0.64983931
N        1.34893605      -3.81813129      -2.16483931
N        3.27093605      -2.74413129      -1.58083931
H       -0.42906395      -1.45413129       0.33516069
H       -0.45206395      -3.16413129      -0.09283931
H       -0.80106395      -2.56513129      -2.50483931
H       -0.53706395      -0.87313129      -2.07383931
H        1.80893605      -1.43113129      -0.10283931
H        0.37093605      -3.99513129      -2.01583931
H        1.87393605      -4.42113129      -2.77883931
H        3.75893605      -2.13313129      -0.92283931
H        3.80193605      -3.34313129      -2.19083931
H       -2.00760695      -1.72053449      -1.51224931
C       -2.59906395       3.86886871      -0.56483931
C       -1.39806395       0.84686871       1.43716069
C       -0.14906395       1.28786871       1.87116069
C       -2.19206395       1.69486871       0.64916069
C       -1.75106395       2.98086871       0.30716069
C        0.30793605       2.56786871       1.53216069
C       -0.49606395       3.41086871       0.75416069
O        0.60793605       0.45486871       2.63816069
H       -1.75206395      -0.13413129       1.71816069
H       -3.16206395       1.35386871       0.31216069
H        1.28093605       2.90086871       1.85316069
H        1.43793605       0.87386871       2.88016069
H       -2.46206395       4.90086871      -0.24283931
H       -3.64906395       3.61986871      -0.40683931
H       -0.13506395       4.39586871       0.48516069
H       -2.36685695       3.79170471      -1.63727931
