23
Properties=species:S:1:pos:R:3 pbc="F F F"
C       -3.73281201       1.26238357      -2.46138564
C       -0.51081201       0.54838357      -0.59938564
C       -0.98781201       0.10138357       0.63261436
C       -1.40381201       0.96438357      -1.57738564
C       -2.77981201       0.93938357      -1.34638564
C       -2.36281201       0.08238357       0.88561436
C       -3.25281201       0.49938357      -0.10638564
O       -0.10481201      -0.32661643       1.57861436
H        0.54118799       0.58038357      -0.80338564
H       -1.01981201       1.30538357      -2.51638564
H       -2.73681201      -0.26761643       1.83361436
H       -0.54981201      -0.54161643       2.40161436
H       -4.55381201       0.54438357      -2.42238564
H       -3.21081201       1.07238357      -3.39938564
H       -4.31781201       0.44738357       0.07361436
H       -4.15972201       2.27530357      -2.50314564
C        4.63918799      -0.86861643      -0.14438564
C        3.35218799      -0.89461643       0.66861436
O        2.41618799      -0.14261643       0.34261436
O        3.29518799      -1.68261643       1.64261436
H        4.74118799      -1.83161643      -0.65238564
H        5.47318799      -0.76261643       0.55061436
H        4.68361799      -0.05882643      -0.88752564
