24
Properties=species:S:1:pos:R:3 pbc="F F F"
C       -2.59413272      -1.40858766      -0.67807154
C       -1.19113272       0.75341234      -0.51107154
C       -2.35813272       0.06741234      -0.61807154
C       -2.83813272       2.20941234      -0.48807154
N       -1.51213272       2.08841234      -0.44107154
N       -3.37913272       0.99441234      -0.54707154
H       -0.21413272       0.33841234      -0.51207154
H       -0.85413272       2.86141234      -0.33807154
H       -2.09113272      -1.80158766      -1.56207154
H       -3.66313272      -1.60558766      -0.78007154
H       -3.38613272       3.14441234      -0.43207154
H       -2.19628272      -1.91762766       0.21220846
C        2.71786728       1.39941234       0.60892846
C        2.45586728      -0.08558766       0.64692846
C        1.69086728      -1.99058766      -0.14807154
C        2.80786728      -1.06858766       1.52292846
N        1.78886728      -0.68258766      -0.40407154
N        2.29686728      -2.25858766       1.01092846
H        1.23386728      -2.72558766      -0.80007154
H        2.23386728       1.79641234      -0.28207154
H        3.77886728       1.59741234       0.49992846
H        2.40486728      -3.19558766       1.40092846
H        3.38586728      -0.94558766       2.42292846
H        2.32813728       1.95915234       1.47194846
