18
Properties=species:S:1:pos:R:3 pbc="F F F"
C        0.07913999      -2.25761202      -0.55132362
C       -0.46886001      -3.05061202      -1.72632362
C        1.49913999      -2.62161202      -0.17132362
H        0.04713999      -1.21061202      -0.83532362
H       -0.54086001      -2.40461202       0.33267638
H       -0.28986001      -4.11561202      -1.56932362
H        0.04813999      -2.73961202      -2.63532362
H        1.77913999      -2.05261202       0.71767638
H        1.48713999      -3.66361202       0.09067638
H       -1.54772001      -2.86730202      -1.83790562
H        2.21034999      -2.39306202      -0.97875962
C       -1.60486001       2.41538798       0.29367638
C       -0.20286001       1.95038798       0.61667638
O        0.04613999       0.73038798       0.61667638
O        0.64713999       2.81638798       0.91767638
H       -1.58786001       3.47138798       0.01467638
H       -2.21486001       2.31738798       1.19367638
H       -2.07379001       1.83192798      -0.51235662
