16
Properties=species:S:1:pos:R:3 pbc="F F F"
C        0.43603474      -1.98346512      -0.28746624
C       -0.81896526      -2.86846512      -0.48346624
H        0.51603474      -1.65846512       0.74853376
H        1.32803474      -2.55046512      -0.55446624
H        0.37203474      -1.10746512      -0.93446624
H       -0.64596526      -3.82646512       0.00453376
H       -1.70437526      -2.38881012      -0.04076324
H       -0.98046526      -3.06310712      -1.55399624
C        0.10703474       1.66853488       0.49053376
C        0.27903474       3.18453488       0.28653376
H       -0.81796526       1.44453488       1.01353376
H        0.10603474       1.17553488      -0.48146624
H        0.93403474       1.27453488       1.08153376
H       -0.39496526       3.47553488      -0.51746624
H       -0.04455526       3.73612488       1.18154076
H        1.29471474       3.47493488      -0.02015424
