16
Properties=species:S:1:pos:R:3 pbc="F F F"
C       -0.69082408      -0.97305042      -1.17249150
C       -0.93882408      -2.20105042      -2.04949150
H        0.17617592      -0.41605042      -1.52749150
H       -1.56282408      -0.31905042      -1.20949150
H       -0.50982408      -1.28105042      -0.14449150
H       -1.83482408      -2.72105042      -1.70249150
H       -0.07057508      -2.87365042      -1.98821150
H       -1.09962208      -1.87443042      -3.08750150
C        0.16417592       1.43094958       1.24850850
C        1.46317592       1.74794958       1.97750850
H       -0.63882408       2.09494958       1.57150850
H        0.34217592       1.54094958       0.18350850
H       -0.11082408       0.39494958       1.44450850
H        2.26217592       1.21694958       1.46550850
H        1.39016592       1.35526958       3.00243850
H        1.68398592       2.82503958       1.94413850
