16
Properties=species:S:1:pos:R:3 pbc="F F F"
C        0.01671751      -1.09027509       1.25917568
C       -1.07228249      -1.66927509       2.16417568
H        0.21171751      -0.05027509       1.51317568
H        0.93971751      -1.65927509       1.36917568
H       -0.27828249      -1.15927509       0.21217568
H       -1.38528249      -2.63127509       1.75217568
H       -1.93866249      -0.99167509       2.17996668
H       -0.76254249      -1.80980509       3.21026868
C        0.71271751       0.68572491      -2.00182432
C        0.34071751       2.07672491      -1.42782432
H        1.22571751       0.78572491      -2.95682432
H        1.37971751       0.17672491      -1.30482432
H       -0.18928249       0.08672491      -2.13082432
H        1.25271751       2.66772491      -1.33582432
H       -0.02928249       1.91272491      -0.41782432
H       -0.40087249       2.63740491      -2.01578032
