22
Properties=species:S:1:pos:R:3 pbc="F F F"
C        0.23238000      -2.43053734      -2.90990153
C        0.75638000      -2.01153734      -1.55790153
O        1.93438000      -2.23053734      -1.26090153
N       -0.09762000      -1.44053734      -0.70990153
H        0.19638000      -1.62853734       0.24909847
H       -1.05862000      -1.52953734      -0.99590153
H        0.43838000      -3.49053734      -3.06490153
H        0.77038000      -1.84553734      -3.65490153
H       -0.84900000      -2.24957934      -2.99856353
C       -1.33862000       1.75846266      -0.61690153
C       -0.36362000       1.58646266       1.72709847
N        0.13538000       0.37346266       1.54109847
N       -1.01662000       2.24346266       0.76109847
N       -0.23362000       2.14746266       2.92509847
H        0.43738000       0.17346266       0.59809847
H        0.60138000      -0.08253734       2.31809847
H       -1.32862000       3.19146266       0.99909847
H       -0.48262000       3.12346266       3.03109847
H        0.25838000       1.67846266       3.67209847
H       -2.33562000       2.12046266      -0.88290153
H       -1.37162000       0.67946266      -0.66090153
H       -0.62869000       2.14823266      -1.36127153
