26
Properties=species:S:1:pos:R:3 pbc="F F F"
C       -2.46258485       1.84723165       0.49791806
C       -2.35358485       3.36723165       0.55391806
C       -3.19058485       1.47523165       1.85191806
H       -1.49358485       1.36523165       0.41491806
H       -3.09758485       1.56123165      -0.34208194
H       -1.42858485       3.63323165       1.06891806
H       -2.34158485       3.79723165      -0.44908194
H       -3.94158485       0.70423165       1.68791806
H       -3.20582785       3.74625165       1.13702806
H       -3.64813585       2.43774165       2.12433806
H       -2.50159885       1.16363165       2.65079806
C        1.71241515      -3.43176835      -0.90508194
C        0.96841515       0.71223165      -0.16408194
C        0.69741515       0.19723165      -1.38808194
C        1.44041515      -0.09976835       0.86491806
C        0.95141515      -1.15076835      -1.63008194
C        1.69341515      -1.45476835       0.62491806
C        1.43941515      -1.99176835      -0.62708194
H        0.79741515       1.76423165       0.02291806
H        0.30841515       0.83023165      -2.17508194
H        1.63541515       0.32423165       1.84091806
H        0.74741515      -1.55376835      -2.61308194
H        2.07441515      -2.07976835       1.42091806
H        2.59341515      -3.74076835      -0.34008194
H        1.95241515      -3.54376835      -1.96408194
H        0.87133115      -4.09786835      -0.66240194
