16
Properties=species:S:1:pos:R:3 pbc="F F F"
C        0.77482076      -1.84686325       0.35999042
C        0.32882076      -3.12986325      -0.34700958
H        1.57382076      -1.32886325      -0.16900958
H       -0.08217924      -1.18186325       0.46699042
H        1.12482076      -2.11386325       1.35699042
H       -0.33917924      -3.67486325       0.31999042
H        1.18677076      -3.77226325      -0.59446958
H       -0.23578924      -2.87266325      -1.25533958
C       -0.31017924       1.78413675      -0.20100958
C       -0.78817924       3.19513675       0.18299042
H        0.62082076       1.84313675      -0.77000958
H       -0.14417924       1.18613675       0.69599042
H       -1.06717924       1.29313675      -0.81400958
H       -1.68217924       3.11013675       0.80499042
H       -1.01792924       3.76534675      -0.72918958
H       -0.00056924       3.71613675       0.74711042
