24
Properties=species:S:1:pos:R:3 pbc="F F F"
C        1.03182533      -0.67226096      -3.18705091
C        1.58982533      -1.56426096      -2.07705091
H        1.37782533      -1.02626096      -4.15905091
H       -0.05517467      -0.70626096      -3.16605091
H        1.34482533       0.35973904      -3.03605091
H        1.31482533      -1.12626096      -1.11805091
H        2.68689673      -1.60574096      -2.14571091
H        1.16297953      -2.57721296      -2.11866091
C        1.31682533       0.68173904       3.11394909
C       -1.15417467       0.15273904      -0.38605091
C       -0.98617467      -0.89626096       0.51794909
C       -0.50617467       1.36873904      -0.16905091
C       -0.18717467      -0.71826096       1.64694909
C        0.29382533       1.53473904       0.96794909
C        0.47282533       0.48973904       1.87694909
O       -1.94617467      -0.02526096      -1.48205091
H       -1.45717467      -1.84926096       0.33694909
H       -2.37717467      -0.88626096      -1.48405091
H       -0.63317467       2.17773904      -0.87405091
H       -0.08617467      -1.53326096       2.34994909
H        0.78782533       2.48173904       1.13194909
H        0.81082533       0.17973904       3.93494909
H        1.37182533       1.73773904       3.36094909
H        2.34144863       0.28671204       3.04990909
