23
Properties=species:S:1:pos:R:3 pbc="F F F"
C       -2.48274132      -1.25291987       2.02307882
C       -0.16974132      -0.56491987      -0.92092118
C       -0.48174132       0.76508013      -1.21292118
C       -0.79674132      -1.22391987       0.12507882
C       -1.77874132      -0.56091987       0.87907882
C       -1.44374132       1.44908013      -0.46192118
C       -2.08874132       0.77408013       0.58907882
H        0.58425868      -1.07991987      -1.49592118
H        0.03425868       1.25308013      -2.02492118
H       -0.53974132      -2.25191987       0.34307882
H       -1.69274132       2.47808013      -0.68192118
H       -2.41074132      -0.63791987       2.92207882
H       -1.96674132      -2.18891987       2.22907882
H       -2.83874132       1.28908013       1.17107882
H       -3.54616532      -1.45003587       1.82238882
C        3.56225868       0.34908013      -1.11892118
C        4.65325868       0.32008013       0.01507882
H        3.79825868       1.12708013      -1.84592118
H        3.51725868      -0.61291987      -1.62792118
H        2.57425868       0.53908013      -0.70092118
H        4.37925868      -0.44991987       0.73107882
H        4.70636868       1.27473013       0.55897882
H        5.63443868       0.05838413      -0.40777118
