27
Properties=species:S:1:pos:R:3 pbc="F F F"
C        2.84635011       0.80657380      -0.54741089
C        4.14235011       0.03557380      -0.67641089
C        3.02035011       2.19057380       0.03758911
H        2.37035011       0.87057380      -1.52441089
H        2.16735011       0.26057380       0.11358911
H        4.62135011       0.01357380       0.30658911
H        3.45635011       2.10257380       1.03358911
H        3.69935011       2.78057380      -0.57941089
H        4.80801011       0.52653380      -1.40156089
H        3.84044011      -0.98787020      -0.94365089
H        2.05830011       2.71742380       0.12058911
C       -2.98764989       0.51357380       2.38958911
C       -0.62264989      -0.80842620      -0.90341089
C       -1.39064989       0.34157380      -1.04241089
C       -0.60164989      -1.56042620       0.28158911
C       -2.14564989       0.74857380       0.04858911
C       -1.38364989      -1.14742620       1.36358911
C       -2.16264989       0.00057380       1.23358911
O        0.17235011      -1.25142620      -1.90041089
H       -1.41664989       0.90657380      -1.95641089
H        0.64135011      -2.04642620      -1.62941089
H        0.00735011      -2.45042620       0.37058911
H       -2.75264989       1.64357380      -0.02441089
H       -1.38664989      -1.71442620       2.28358911
H       -3.32364989      -0.31242620       3.01858911
H       -3.86964989       1.00457380       1.97958911
H       -2.33890989       1.19334380       2.96146911
