25
Properties=species:S:1:pos:R:3 pbc="F F F"
C        2.59214818      -1.70629541      -3.06420318
O        1.20114818      -1.44229541      -3.02920318
H        1.07914818      -0.59329541      -3.49920318
H        3.13214818      -0.99529541      -2.44120318
H        2.92714818      -1.58329541      -4.09620318
H        2.80423818      -2.73511541      -2.73779318
C       -3.38185182       0.46270459       1.30779682
C       -1.88085182      -0.86129541      -0.30420318
C        0.16814818      -0.07529541       0.17479682
C       -2.07785182       0.05570459       0.68579682
C       -0.77785182       0.57670459       1.01479682
C        1.53414818       0.19970459       0.23279682
C        1.96614818       1.14670459       1.14779682
C       -0.31385182       1.53070459       1.93579682
C        1.05614818       1.80770459       1.99379682
N       -0.54085182      -0.94229541      -0.61620318
H       -0.14685182      -1.50429541      -1.36720318
H       -2.66085182      -1.43129541      -0.79220318
H        2.23014818      -0.30629541      -0.41720318
H       -3.41485182       1.55170459       1.33779682
H       -3.36285182       0.12770459       2.33579682
H        3.01814818       1.39270459       1.19279682
H       -1.01085182       2.04170459       2.58379682
H        1.42414818       2.54770459       2.69179682
H       -4.27578182       0.09347459       0.78381682
