30
Properties=species:S:1:pos:R:3 pbc="F F F"
C       -1.52171259       2.40412353      -2.22581443
C       -1.16071259       0.31612353      -0.62981443
C       -1.87171259       1.49712353      -1.05081443
C       -1.86871259      -0.25087647       0.47018557
C       -2.93671259       1.60712353      -0.20281443
C        0.41928741      -1.49887647      -0.46981443
C       -0.27871259      -2.01487647       0.63718557
C       -0.02771259      -0.35687647      -1.12081443
C       -1.43071259      -1.40487647       1.11418557
N       -2.93371259       0.57312353       0.72018557
H        1.31128741      -2.00587647      -0.80881443
H        0.08828741      -2.90887647       1.12718557
H        0.51228741       0.04312353      -1.96781443
H       -1.96771259      -1.80587647       1.96318557
H       -0.46071259       2.29512353      -2.44281443
H       -1.70071259       3.44012353      -1.93581443
H       -3.68671259       2.37312353      -0.23381443
H       -3.62571259       0.45612353       1.45318557
H       -2.08139259       2.18627093      -3.14738843
C        3.79928741      -0.02987647       0.48118557
C        5.07528741      -0.79087647       0.09718557
C        3.42028741      -0.22487647       1.95918557
H        3.95328741       1.02512353       0.27518557
H        2.96928741      -0.38187647      -0.12881443
H        5.01828741      -1.81587647       0.46418557
H        5.92628741      -0.30287647       0.57818557
H        3.38128741      -1.27687647       2.21118557
H        4.18528741       0.22812353       2.59418557
H        5.23391741      -0.81517047      -0.99104543
H        2.43683741       0.20931853       2.19220357
