18
Properties=species:S:1:pos:R:3 pbc="F F F"
C        0.20530327      -0.96452430      -2.95183105
C        0.76130327      -2.21352430      -3.61983105
H        0.90230327      -0.60852430      -2.19483105
H        0.05630327      -0.19852430      -3.70283105
H       -0.74669673      -1.18752430      -2.48583105
H        0.13430327      -2.46052430      -4.47183105
H        0.78163627      -3.06150160      -2.91946105
H        1.79242027      -2.04130970      -3.96209105
C        0.43530327      -0.03052430       0.79616895
C        1.38530327      -0.43952430       1.92216895
C       -0.63769673       0.97747570       1.22316895
O       -1.10269673       0.93947570       2.38416895
O       -1.06169673       1.80047570       0.38916895
H        1.03330327       0.39947570      -0.00783105
H       -0.04869673      -0.92852430       0.40916895
H        0.81030327      -0.87952430       2.73716895
H        1.86430327       0.45747570       2.30316895
H        2.16088427      -1.15731130       1.61678895
