30
Properties=species:S:1:pos:R:3 pbc="F F F"
C        2.99933884       2.50072766       0.82677389
C        2.83233884       2.06372766       2.29077389
C        4.22133884       1.89172766       0.11877389
H        2.10233884       2.25072766       0.26277389
H        3.10433884       3.58572766       0.80177389
H        2.69933884       0.98572766       2.30677389
H        5.12033884       2.15072766       0.67477389
H        1.94666884       2.54380766       2.73248389
H        3.75326884       2.30945766       2.83987389
H        4.14821884       0.79498766       0.07618389
H        4.34443884       2.30636766      -0.89262611
C        1.07833884      -2.59227234       0.42577389
C       -0.71566116      -0.72827234      -0.16622611
C       -0.23566116      -2.09227234      -0.13322611
C       -1.99866116      -0.73727234      -0.77622611
C       -1.21566116      -2.84227234      -0.71022611
C       -0.19366116       0.49972766       0.26177389
C       -0.93766116       1.66172766       0.06277389
C       -2.20066116       1.61872766      -0.54322611
C       -2.74466116       0.42172766      -0.97422611
N       -2.26966116      -2.04127234      -1.09322611
H        0.77133884       0.53372766       0.73777389
H       -0.53866116       2.61172766       0.39077389
H       -2.75866116       2.53672766      -0.67722611
H        1.89033884      -2.10927234      -0.11822611
H        1.14833884      -3.65827234       0.23677389
H       -1.16766116      -3.91727234      -0.84522611
H       -3.10866116      -2.38327234      -1.54622611
H       -3.72166116       0.37872766      -1.43222611
H        1.21134884      -2.40349234       1.50126389
