16
Properties=species:S:1:pos:R:3 pbc="F F F"
C        2.08644182       0.03094301       0.27103467
C        1.96744182       0.31894301      -1.23796533
H        3.12644182       0.12994301       0.58403467
H        1.47544182       0.74194301       0.82803467
H        1.74144182      -0.98205699       0.48203467
H        0.92144182       0.22294301      -1.53296533
H        2.56475182      -0.42335699      -1.78770533
H        2.27539182       1.35164301      -1.45854533
C       -1.68555818      -0.47005699      -0.13496533
C       -2.36355818       0.11994301       1.10403467
H       -2.00455818       0.07194301      -1.02596533
H       -0.60755818      -0.38605699      -0.03696533
H       -1.96055818      -1.52005699      -0.23196533
H       -2.12655818       1.18194301       1.18203467
H       -3.44976918       0.01524301       0.96556467
H       -2.01271418      -0.40135699       2.00692467
