22
Properties=species:S:1:pos:R:3 pbc="F F F"
C       -0.30660071       1.24445477       1.77281271
C       -0.68860071       2.72345477       1.61281271
O        1.10339929       1.12745477       1.46381271
H       -0.48360071       0.93645477       2.80381271
H       -0.90260071       0.63145477       1.10081271
H       -0.06860071       3.27245477       2.31881271
H        1.44539929       0.32545477       1.88981271
H       -1.74210071       2.92323477       1.85823271
H       -0.40759071       3.04513477       0.59913271
C        0.08839929       0.14845477      -2.57818729
C       -0.07160071      -1.32654523      -0.62618729
N        0.66839929      -0.65454523      -1.51018729
N       -1.39460071      -1.28454523      -0.67018729
N        0.51739929      -2.05054523       0.31181271
H        1.68239929      -0.68754523      -1.41918729
H       -1.86160071      -0.58154523      -1.21318729
H       -1.93760071      -1.85154523      -0.03318729
H        1.52339929      -2.13854523       0.31981271
H       -0.02660071      -2.59754523       0.96281271
H       -0.19560071       1.13245477      -2.20918729
H       -0.76460071      -0.36754523      -2.98518729
H        0.78592929       0.25937477      -3.42147729
