35
Properties=species:S:1:pos:R:3 pbc="F F F"
C        4.28572210       2.79457087      -1.03246182
C        0.65372210       1.76157087      -1.48446182
C        1.85372210       2.16157087      -0.91246182
C        0.57472210       1.58357087      -2.86546182
C        2.98572210       2.38057087      -1.69046182
C        1.69172210       1.79657087      -3.67146182
C        2.89472210       2.18757087      -3.06946182
O       -0.63227790       1.23557087      -3.35946182
H       -0.20327790       1.57757087      -0.86646182
H        1.90472210       2.30457087       0.15753818
H       -1.28827790       1.16757087      -2.66646182
H        1.61072210       1.67557087      -4.73946182
H        4.04172210       3.58057087      -0.32046182
H        4.95072210       3.23257087      -1.77846182
H        3.76672210       2.35257087      -3.68846182
H        4.80362210       1.98216587      -0.50163182
C       -1.92827790      -2.56442913       4.64453818
C       -0.73727790      -1.60642913       1.22453818
C       -1.77327790      -1.63442913       2.20053818
C       -1.21227790      -2.22442913       3.38553818
C        0.08572210      -2.50242913       3.11253818
C       -2.17227790      -0.61142913      -0.37746182
C       -0.91527790      -1.07142913      -0.03846182
C       -3.23627790      -0.62042913       0.55053818
C       -3.04827790      -1.16542913       1.83853818
N        0.37472210      -2.12042913       1.82753818
H       -2.34727790      -0.22942913      -1.37346182
H       -0.10227790      -1.05942913      -0.74946182
H       -4.20927790      -0.25142913       0.26053818
H       -3.86527790      -1.20642913       2.51453818
H        1.26972210      -2.26942913       1.36553818
H        0.77872210      -2.98342913       3.79653818
H       -2.51827790      -1.71642913       4.98153818
H       -1.20027790      -2.80242913       5.42153818
H       -2.59442790      -3.42612913       4.49053818
