27
Properties=species:S:1:pos:R:3 pbc="F F F"
C        0.33855852      -1.86426549      -0.95367676
C        1.54055852      -2.79326549      -0.68767676
C        0.49155852      -0.59126549      -0.18367676
C        1.57355852       0.23073451      -0.44967676
C       -0.32344148      -0.31526549       0.91532324
C        1.78955852       1.38773451       0.33732324
C       -0.11744148       0.82073451       1.69032324
C        0.94855852       1.64373451       1.41232324
O        1.10055852       2.76873451       2.17932324
H        0.28055852      -1.63726549      -2.01867676
H       -0.58544148      -2.36626549      -0.66267676
H        2.43755852      -2.32526549      -1.09767676
H        2.23755852       0.01273451      -1.27667676
H       -1.13844148      -0.98426549       1.16232324
H        2.61455852       2.05273451       0.11632324
H       -0.76944148       1.04473451       2.52332324
H        1.83255852       3.31673451       1.87232324
H        1.37439852      -3.76764449      -1.17035476
H        1.69932852      -2.95275449       0.38905724
C       -2.78544148      -0.23526549      -2.17767676
C       -4.04244148      -1.01826549      -1.78867676
H       -2.16244148      -0.06826549      -1.29967676
H       -2.22344148      -0.80026549      -2.92067676
H       -3.06844148       0.72873451      -2.60267676
H       -4.64444148      -1.14426549      -2.68567676
H       -4.60128148      -0.45299149      -1.02830776
H       -3.76371148      -2.01658549      -1.42035076
