19
Properties=species:S:1:pos:R:3 pbc="F F F"
C        0.07693264      -1.66853834      -0.40919887
C        0.56493264      -2.58853834       0.70780113
C        1.20793264      -0.91053834      -1.08219887
H       -0.47806736      -2.24653834      -1.14619887
H       -0.61006736      -0.94153834       0.01680113
H        1.06293264      -1.97853834       1.46480113
H        1.29993264      -3.28353834       0.29680113
H        0.78693264      -0.00553834      -1.52419887
H        1.94593264      -0.59553834      -0.34319887
H       -0.23605136      -3.16813834       1.18997113
H        1.63308064      -1.49821834      -1.90916887
C       -0.83406736       1.99546166      -0.16119887
C       -1.01306736       3.05146166       0.91780113
H       -1.79906736       1.57846166      -0.45519887
H       -0.35006736       2.43546166      -1.03419887
H       -0.19406736       1.21146166       0.23680113
H       -0.02306736       3.39146166       1.22680113
H       -1.52306136       2.61529166       1.78939113
H       -1.54702836       3.92357166       0.51245113
