16
Properties=species:S:1:pos:R:3 pbc="F F F"
C        0.83088073       0.17788813      -1.89281160
C        2.29588073       0.65688813      -1.62881160
H        0.69988073      -0.85011187      -1.55381160
H        0.14488073       0.82588813      -1.34881160
H        0.59588073       0.25688813      -2.94781160
H        2.42488073       1.64588813      -2.06281160
H        3.01670073      -0.04603187      -2.07189580
H        2.48579073       0.71286813      -0.54677560
C       -0.97511927      -0.52211187       1.26718840
C       -2.15111927      -0.31411187       2.25518840
H       -0.09511927       0.02688813       1.60518840
H       -0.73511927      -1.58411187       1.20418840
H       -1.26611927      -0.17311187       0.27718840
H       -3.01011927      -0.87411187       1.88718840
H       -2.38524927       0.76000813       2.29336940
H       -1.88251927      -0.68370187       3.25581540
