15
Properties=species:S:1:pos:R:3 pbc="F F F"
C        0.61951189       1.10279986      -2.45570925
N       -0.47048811       0.25379986      -1.89170925
H       -1.10348811      -0.09920014      -2.59570925
H       -0.06748811      -0.52320014      -1.37570925
H       -0.99648811       0.73179986      -1.16270925
H        1.21151189       0.50579986      -3.15670925
H        1.29251189       1.38579986      -1.63970925
H        0.31855189       2.02705986      -2.97064925
C       -0.05548811      -0.51620014       2.60529075
C       -0.01448811      -0.34020014       1.08929075
O        1.04351189      -0.56220014       0.45929075
O       -1.06748811       0.00679986       0.51529075
H       -0.70148811      -1.36620014       2.83029075
H       -0.50848811       0.37079986       3.05129075
H        0.92515189      -0.68011014       3.07591075
