19
Properties=species:S:1:pos:R:3 pbc="F F F"
C        0.41648476       1.08774397       0.05152514
C        1.10048476       1.77374397       1.23852514
C       -0.42751524       1.95074397      -0.89347486
H        1.18448476       0.59074397      -0.54247486
H       -0.25751524       0.34074397       0.47052514
H        0.36648476       2.36474397       1.79052514
H        0.18548476       2.72674397      -1.34347486
H        1.90975476       2.43113297       0.88791514
H        1.48284476       1.01693697       1.93927514
H       -0.83150524       1.30940397      -1.69064086
H       -1.25267524       2.42968597      -0.34600486
C        0.08748476      -2.19925603      -0.61147486
C       -1.14951524      -2.52825603       0.21352514
H       -0.18751524      -1.80725603      -1.58947486
H        0.72148476      -1.50125603      -0.07947486
H        0.70148476      -3.08925603      -0.72247486
H       -1.85051524      -1.69525603       0.16352514
H       -1.62026524      -3.43737003      -0.18884486
H       -0.87880524      -2.68923603       1.26747514
