18
Properties=species:S:1:pos:R:3 pbc="F F F"
C       -2.34549596      -0.51828764       0.00248359
C       -2.04149596       0.41471236       1.15048359
O       -2.87349596       0.61671236       2.02948359
N       -0.85849596       1.01071236       1.16048359
H       -0.62449596       1.59271236       1.96248359
H       -0.13949596       0.82071236       0.48848359
H       -1.44049596      -0.87228764      -0.46551641
H       -2.90649596       0.04671236      -0.74451641
H       -2.93366596      -1.39838764       0.30161559
C        2.37850404      -1.66228764      -0.54951641
C        2.04150404      -0.32928764      -1.10851641
O        2.87850404       0.34771236      -1.71451641
N        0.81550404       0.07571236      -0.95551641
H        0.60850404       0.97771236      -1.37051641
H        0.12950404      -0.61028764      -0.69351641
H        3.44950404      -1.83028764      -0.68351641
H        1.86050404      -2.40428764      -1.13951641
H        2.12114404      -1.76132764       0.51535659
