25
Properties=species:S:1:pos:R:3 pbc="F F F"
C        1.17450609       0.51774644       1.47132569
C        2.54050609      -0.15325356       1.59632569
C        0.15750609      -0.29225356       0.69232569
C       -0.43649391      -1.41925356       1.26832569
C       -0.18149391       0.04674644      -0.62167431
C       -1.35449391      -2.19725356       0.54732569
C       -1.09849391      -0.72225356      -1.34967431
C       -1.68349391      -1.84625356      -0.76467431
O       -2.56949391      -2.60025356      -1.48267431
H        0.77750609       0.68274644       2.47232569
H        1.32550609       1.47174644       1.05332569
H        2.40550609      -1.06325356       2.17632569
H       -0.18149391      -1.69625356       2.28232569
H        0.28250609       0.90374644      -1.08967431
H       -1.80549391      -3.06425356       1.00732569
H       -1.35649391      -0.45125356      -2.36367431
H       -2.93449391      -3.32425356      -0.96567431
H        3.25556609       0.51725594       2.09543239
H        2.92327609      -0.42459456       0.60140869
C        1.79350609       4.35474644      -0.82867431
O        1.20650609       3.19974644      -0.28467431
H        0.25050609       3.33874644      -0.24767431
H        1.47250609       5.23174644      -0.26367431
H        1.46550609       4.46674644      -1.86267431
H        2.89117609       4.28704244      -0.80562631
