27
Properties=species:S:1:pos:R:3 pbc="F F F"
C       -1.28561731      -3.31046337      -0.29159351
C        0.17338269      -1.12446337       0.03740649
C       -0.31861731      -2.23946337      -0.73359351
C        1.03038269      -0.35246337      -0.80559351
C        0.22438269      -2.12746337      -1.95859351
C        0.61138269       0.46853663       1.82040649
C        1.45238269       1.21653663       0.96140649
C       -0.02961731      -0.69546337       1.36940649
C        1.67238269       0.81053663      -0.36159351
N        1.04538269      -0.99646337      -2.03059351
H        0.44438269       0.78153663       2.84640649
H        1.93038269       2.11553663       1.33040649
H       -0.67261731      -1.23746337       2.05640649
H        2.31238269       1.35653663      -1.04259351
H       -1.61961731      -3.84046337      -1.18859351
H       -2.14461731      -2.79846337       0.14640649
H       -0.03061731      -2.87946337      -2.69659351
H        1.57038269      -0.68546337      -2.84259351
H       -0.87784731      -4.00042337       0.46185649
C       -1.57161731       3.45953663       1.56540649
C       -2.28461731       4.09653663       0.35440649
H       -1.46261731       4.20053663       2.35940649
H       -2.15361731       2.61553663       1.93940649
H       -0.58461731       3.10553663       1.26740649
H       -2.39661731       3.34953663      -0.43259351
H       -1.68115031       4.93973663      -0.01289351
H       -3.27804531       4.41812663       0.70035649
