24
Properties=species:S:1:pos:R:3 pbc="F F F"
C        2.09856051      -1.54652744      -0.02195695
C        2.01756051      -3.05352744       0.25104305
H        1.75756051      -0.99852744       0.85404305
H        3.12356051      -1.27152744      -0.19995695
H        1.47956051      -1.28252744      -0.87795695
H        2.73856051      -3.26852744       1.03904305
H        1.01026551      -3.32726444       0.59806405
H        2.29397451      -3.63810944      -0.63882095
C        0.52256051       2.18047256      -2.27395695
C       -1.50143949      -0.37852744      -0.29995695
C       -1.09643949      -0.09152744       1.00904305
C       -0.97743949       0.36547256      -1.36095695
C       -0.05243949       1.38547256      -1.13095695
C       -0.18643949       0.93347256       1.24804305
C        0.32856051       1.66547256       0.18104305
O       -1.55643949      -0.80652744       2.06804305
H       -2.20443949      -1.17452744      -0.48195695
H       -1.28043949       0.13747256      -2.37495695
H        0.13056051       1.15847256       2.25704305
H       -1.18143949      -0.48952744       2.89104305
H        0.34256051       1.65747256      -3.21495695
H        1.60356051       2.24847256      -2.13595695
H        1.04556051       2.45347256       0.37504305
H        0.10513451       3.19649906      -2.33265795
