29
Properties=species:S:1:pos:R:3 pbc="F F F"
C       -0.02522649      -2.72000923      -1.24956867
C        0.65877351      -1.39900923      -0.93156867
C        1.37677351      -1.06400923       0.20143133
C        0.67377351      -0.23100923      -1.76556867
C        1.43677351       0.75999077      -1.09656867
C        0.14177351       0.07299077      -3.03556867
C        1.63177351       2.02599077      -1.63256867
C        0.34677351       1.34099077      -3.57056867
C        1.08877351       2.29999077      -2.88756867
N        1.84177351       0.22799077       0.10043133
H       -0.36122649      -2.66500923      -2.28456867
H       -0.91222649      -2.82100923      -0.62456867
H        1.54277351      -1.70600923       1.05843133
H        2.35577351       0.71999077       0.82743133
H       -0.43122649      -0.66600923      -3.57756867
H        2.21677351       2.76699077      -1.10956867
H       -0.06622649       1.57999077      -4.54256867
H        1.24377351       3.27399077      -3.33556867
H        0.62956351      -3.59784023      -1.14629867
C       -1.64122649      -0.87300923       1.97643133
C       -2.97822649      -0.54300923       1.29643133
C       -1.28622649      -0.05300923       3.24143133
O       -1.94822649       0.97999077       3.50943133
O       -0.34422649      -0.43800923       4.00343133
H       -1.56922649      -1.93600923       2.12643133
H       -0.87422649      -0.65600923       1.24343133
H       -3.73422649      -0.31700923       2.04843133
H       -3.30122649      -1.44500923       0.77443133
H       -2.91723649       0.26350777       0.55090133
