27
Properties=species:S:1:pos:R:3 pbc="F F F"
C        0.50884317       0.17399805      -2.64871180
C        1.19384317      -0.14000195      -0.23171180
C        0.44884317      -0.56400195      -1.33571180
C        1.11684317      -0.82800195       0.99128820
C       -0.37715683      -1.67600195      -1.19171180
C        0.29084317      -1.94300195       1.11628820
C       -0.44615683      -2.37500195       0.01928820
O        0.22284317      -2.62600195       2.29328820
H        1.83684317       0.72499805      -0.31571180
H        1.69584317      -0.49900195       1.84128820
H        0.74584317       1.22099805      -2.46071180
H       -0.48215683       0.13899805      -3.10571180
H       -0.97115683      -2.01500195      -2.02971180
H       -1.08915683      -3.23700195       0.10128820
H       -0.38515683      -3.37900195       2.20328820
H        1.24477017      -0.24005095      -3.35367580
C       -1.09315683       2.61499805       0.32728820
C       -1.79015683       3.62299805      -0.60071180
C        0.21684317       3.10599805       0.95228820
H       -1.76815683       2.32599805       1.13128820
H       -0.88515683       1.71399805      -0.24771180
H       -2.69615683       3.15299805      -0.98371180
H        0.03484317       3.95299805       1.61028820
H        0.64284317       2.29899805       1.54728820
H        0.94084317       3.37599805       0.18428820
H       -2.07425783       4.53341405      -0.05259710
H       -1.15477163       3.87483605      -1.46260680
