16
Properties=species:S:1:pos:R:3 pbc="F F F"
C        0.12402463       2.99498073      -0.20317086
C        1.18302463       2.01898073       0.30082914
O        0.88002463       0.81198073       0.41582914
O        2.32102463       2.45098073       0.57582914
H       -0.08097537       2.79698073      -1.25817086
H        0.47902463       4.02598073      -0.11717086
H       -0.81065537       2.89963073       0.36890914
C       -2.23197537      -1.20001927       0.10282914
C       -1.11097537      -2.14401927      -0.28917086
O       -1.31297537      -3.35101927      -0.40117086
N        0.08002463      -1.61501927      -0.50017086
H        0.83102463      -2.22501927      -0.76517086
H        0.26002463      -0.64201927      -0.23217086
H       -1.82797537      -0.21201927       0.28782914
H       -2.66897537      -1.56701927       1.03082914
H       -3.00191537      -1.13507927      -0.68010086
