30
Properties=species:S:1:pos:R:3 pbc="F F F"
C        4.03213694      -2.99496011      -0.41808939
C        0.36313694      -2.14996011      -0.86908939
C        0.38313694      -1.45496011      -2.07708939
C        1.55213694      -2.64896011      -0.33408939
C        2.76313694      -2.45296011      -0.99808939
C        1.59113694      -1.25896011      -2.74608939
C        2.77613694      -1.75996011      -2.20808939
H       -0.56886306      -2.29596011      -0.34208939
H       -0.53686306      -1.06996011      -2.49608939
H        1.52813694      -3.19796011       0.59491061
H        1.60413694      -0.72996011      -3.68608939
H        4.55513694      -3.56196011      -1.18008939
H        3.76513694      -3.70396011       0.36891061
H        3.70313694      -1.60896011      -2.74208939
H        4.69582494      -2.22966011       0.01067761
C       -3.34286306       2.39203989       3.35291061
C       -1.74186306       0.87503989       0.26791061
C       -2.54386306       1.04103989       1.39391061
C       -0.89286306       1.90603989      -0.13608939
C       -2.50886306       2.23303989       2.11491061
C       -0.85486306       3.09903989       0.58091061
C       -1.65986306       3.25903989       1.70291061
H       -1.76486306      -0.05296011      -0.28308939
H       -3.19486306       0.24003989       1.70791061
H       -0.24986306       1.77803989      -0.99508939
H       -0.20086306       3.89803989       0.26091061
H       -4.29286306       1.87303989       3.22091061
H       -3.57186306       3.45003989       3.49291061
H       -1.62586306       4.18503989       2.25591061
H       -2.84283806       2.01952989       4.25911661
