26
Properties=species:S:1:pos:R:3 pbc="F F F"
C        2.92103631      -0.26083311      -2.36975086
C        1.20903631      -0.73083311      -0.54875086
C       -0.17996369       0.99716689      -0.65575086
C        1.71003631       0.04416689      -1.52775086
C        0.84103631       1.17116689      -1.62575086
C       -1.18096369       1.92916689      -0.45675086
C       -1.16796369       3.05916689      -1.28975086
C        0.82703631       2.30216689      -2.44075086
C       -0.15396369       3.25116689      -2.22875086
N        0.09203631      -0.17583311      -0.02375086
H       -0.38796369      -0.57383311       0.78924914
H        1.64803631      -1.66483311      -0.21675086
H       -1.94596369       1.77916689       0.29124914
H        2.68703631       0.02816689      -3.38875086
H        3.07203631      -1.33983311      -2.37275086
H       -1.94396369       3.80616689      -1.18375086
H        1.57403631       2.44216689      -3.20775086
H       -0.18196369       4.12416689      -2.85375086
H        3.86711631       0.19891589      -2.04792686
C       -0.87096369      -3.12583311       4.10824914
C       -1.14496369      -2.45983311       2.84224914
O       -0.32596369      -1.63583311       2.38224914
O       -2.23796369      -2.77183311       2.35224914
H        0.17303631      -3.06383311       4.33924914
H       -1.05696369      -4.19483311       3.96224914
H       -1.56457369      -2.74082011       4.87026914
