16
Properties=species:S:1:pos:R:3 pbc="F F F"
C        0.16545297      -1.77151341      -0.99812597
C        1.25045297      -2.57651341      -0.27812597
H        0.06145297      -2.12951341      -2.02412597
H       -0.78854703      -1.87051341      -0.47812597
H        0.43845297      -0.71751341      -1.03112597
H        1.27245297      -2.29551341       0.77687403
H        2.19861297      -2.32132741      -0.77398597
H        1.03320297      -3.65331741      -0.33552597
C       -0.99254703       1.57248659       0.25887403
C       -0.42254703       2.77848659       1.01787403
H       -1.01654703       1.75348659      -0.81312597
H       -0.35154703       0.71748659       0.45587403
H       -1.99554703       1.33448659       0.61487403
H        0.50845297       3.10648659       0.55387403
H       -0.20954703       2.44648659       2.03287403
H       -1.16056703       3.59415759       1.01573403
