27
Properties=species:S:1:pos:R:3 pbc="F F F"
C       -1.62386522      -3.75273284      -1.80138750
C       -2.01086522      -4.63973284      -0.63438750
H       -0.77386522      -3.13973284      -1.50938750
H       -1.33786522      -4.36973284      -2.65238750
H       -2.45986522      -3.11673284      -2.09138750
H       -2.79386522      -5.31373284      -0.97938750
H       -2.37749522      -4.02773284       0.20289250
H       -1.14500522      -5.23483284      -0.30860750
C        2.18513478       2.40726716       2.17361250
C       -0.51886522       0.81726716       0.11261250
C        0.86013478       1.05126716       0.36861250
C        0.94113478       1.92426716       1.50961250
C       -0.33886522       2.18226716       1.88661250
C        0.00213478      -0.58473284      -1.73538750
C       -0.95786522       0.00626716      -0.93038750
C        1.37113478      -0.37473284      -1.50738750
C        1.81013478       0.43726716      -0.46038750
N       -1.21686522       1.52326716       1.05761250
H       -0.31486522      -1.21073284      -2.55838750
H       -2.01286522      -0.15773284      -1.10038750
H        2.09913478      -0.86073284      -2.14138750
H        2.86513478       0.56826716      -0.27138750
H       -2.22586522       1.54826716       1.15961250
H       -0.62586522       2.80526716       2.72861250
H        2.09613478       3.47426716       2.38161250
H        3.01313478       2.27626716       1.47661250
H        2.41444478       1.86066716       3.10024250
