29
Properties=species:S:1:pos:R:3 pbc="F F F"
C        0.62934686      -0.54972261      -0.09659650
C        1.93734686      -1.32872261      -0.34759650
C        0.41434686      -1.94472261      -2.09459650
C       -1.71865314       1.01627739      -1.01759650
C       -1.14265314      -0.12272261      -1.85859650
O       -1.62465314      -0.39172261      -2.97259650
N       -0.15865314      -0.83572261      -1.31559650
H        0.12234686      -0.94872261       0.78140350
H        0.84734686       0.51227739       0.02340350
H        2.44234686      -1.60572261       0.57140350
H        2.60334686      -0.72472261      -0.96659650
H        0.91334686      -1.54072261      -2.97659650
H       -0.90365314       1.59227739      -0.57759650
H        1.59731186      -2.20167261      -0.92408450
H        1.16610586      -2.37984261      -1.41966450
H       -0.32746814      -2.69449261      -2.40693950
H       -2.29411914       1.64830739      -1.70996550
H       -2.38215214       0.62648739      -0.23157250
C       -0.05065314       1.15327739       3.26140350
C        1.28334686       0.48227739       3.72040350
C        0.27934686       2.49127739       2.61640350
H       -0.55865314       0.51027739       2.54340350
H       -0.71365314       1.32727739       4.10740350
H        1.86234686       1.20027739       4.30340350
H        1.87134686       0.22327739       2.83840350
H        0.77134686       3.14227739       3.34240350
H        0.99934686       2.31427739       1.81440350
H        1.13007186      -0.42383261       4.32495010
H       -0.59946014       2.98753639       2.17888250
