23
Properties=species:S:1:pos:R:3 pbc="F F F"
C        2.87123553       2.73452644      -2.09065480
C        2.80723553       1.22552644      -1.86665480
O        2.28123553       0.77952644      -0.82165480
O        3.28923553       0.48452644      -2.74365480
H        2.92623553       2.96652644      -3.15765480
H        3.79123553       3.12052644      -1.64265480
H        2.02191553       3.27670644      -1.64941480
C       -1.11876447      -3.58147356       1.50734520
C       -0.43676447       0.09552644       0.81134520
C       -1.71876447       0.62752644       0.79434520
C       -0.24976447      -1.26247356       1.04334520
C       -1.33276447      -2.10147356       1.28434520
C       -2.81676447      -0.20047356       1.01534520
C       -2.61776447      -1.56047356       1.25234520
O       -1.89176447       1.96052644       0.56234520
H        0.40323553       0.75252644       0.66834520
H        0.74823553      -1.66747356       1.05234520
H       -3.81676447       0.20852644       1.01434520
H       -2.81676447       2.21552644       0.62734520
H       -0.09376447      -3.84747356       1.26734520
H       -1.76476447      -4.08447356       0.80534520
H       -3.45176447      -2.19447356       1.48234520
H       -1.36997447      -3.98716356       2.49846220
