24
Properties=species:S:1:pos:R:3 pbc="F F F"
C       -0.80820648      -1.81735319      -2.19596177
C       -0.54820648      -0.76735319       0.07203823
C       -0.13120648      -1.71735319      -0.85996177
C        0.07279352      -0.67135319       1.31803823
C        0.91479352      -2.57635319      -0.53396177
C        1.12079352      -1.53235319       1.63903823
C        1.54179352      -2.48835319       0.71103823
H       -1.37720648      -0.11735319      -0.15696177
H       -0.27220648       0.05364681       2.04203823
H       -0.17120648      -2.36435319      -2.89096177
H       -0.92620648      -0.80635319      -2.58496177
H        1.23179352      -3.33135319      -1.23796177
H        1.57979352      -1.46135319       2.61003823
H        2.31879352      -3.19335319       0.95103823
H       -1.79347648      -2.30531319      -2.16213177
C       -0.43320648       2.77764681       0.18103823
C       -1.87820648       3.25664681      -0.00196177
O        0.49679352       3.81164681      -0.10796177
H       -0.28720648       2.44264681       1.20503823
H       -0.24320648       1.93464681      -0.48296177
H       -2.55820648       2.56064681       0.49203823
H        0.49879352       4.46164681       0.61903823
H       -2.12775648       3.34361681      -1.06974177
H       -1.98386648       4.25133681       0.45566823
