34
Properties=species:S:1:pos:R:3 pbc="F F F"
C       -0.91535131      -0.10915448      -3.21317521
C       -2.97535131       0.57084552      -1.99017521
C       -1.70935131       0.91084552      -2.45817521
C       -3.72235131       1.43684552      -1.24117521
C       -3.24935131       2.67284552      -0.97317521
C       -1.20535131       2.15984552      -2.15917521
C       -1.99635131       3.05484552      -1.41017521
H       -3.37035131      -0.40915448      -2.21217521
H       -4.68435131       1.12784552      -0.85717521
H       -1.11835131      -1.09415448      -2.78717521
H        0.14564869       0.09384552      -3.06617521
H       -3.85135131       3.36084552      -0.39717521
H       -0.21535131       2.44884552      -2.48617521
H       -1.61335131       4.03484552      -1.15717521
H       -1.14543131      -0.13367448      -4.28856421
C       -0.71135131      -0.64415448       0.83682479
C       -1.57935131      -1.81015448       1.31382479
C        0.73464869      -0.83115448       1.17182479
C        1.46364869      -1.86015448       0.60482479
C        1.37764869       0.00584552       2.07582479
C        2.80064869      -2.06615448       0.91982479
C        2.72764869      -0.16415448       2.38782479
C        3.43364869      -1.22015448       1.80482479
O        4.74964869      -1.39515448       2.04782479
H       -0.79935131      -0.56215448      -0.24617521
H       -1.06835131       0.28684552       1.26882479
H       -1.19635131      -2.70215448       0.82482479
H        0.98364869      -2.51715448      -0.10817521
H        0.83064869       0.81684552       2.53782479
H        3.33864869      -2.88215448       0.46582479
H        3.22964869       0.50484552       3.06782479
H        5.14064869      -1.76115448       1.25182479
H       -2.63295031      -1.65445448       1.03871479
H       -1.51065531      -1.91717448       2.40644479
