16
Properties=species:S:1:pos:R:3 pbc="F F F"
C        0.35445542       1.49571912       0.43556436
C        0.76445542       2.76671912       1.18656436
H        1.10645542       0.71871912       0.57556436
H       -0.60054458       1.13971912       0.82356436
H        0.22745542       1.69571912      -0.62843564
H        0.04145542       3.54771912       0.94556436
H        1.76499542       3.09135532       0.86480436
H        0.75873542       2.64516761       2.27981436
C       -0.42354458      -2.07728088      -0.06243564
C       -0.68854458      -2.19328088      -1.55943564
H        0.52545542      -1.58528088       0.14256436
H       -1.22054458      -1.48828088       0.39356436
H       -0.43454458      -3.06628088       0.38856436
H       -0.82654458      -1.18228088      -1.94543564
H        0.17552542      -2.64929588      -2.06484564
H       -1.59918458      -2.77018288      -1.77835564
