18
Properties=species:S:1:pos:R:3 pbc="F F F"
C       -1.35835957      -2.70696667       0.11014621
C       -1.72635957      -1.79196667      -1.04185379
O       -2.57935957      -2.11396667      -1.86985379
N       -1.07235957      -0.64596667      -1.12285379
H       -1.26535957      -0.04996667      -1.91485379
H       -0.37135957      -0.36096667      -0.44485379
H       -0.93235957      -2.11596667       0.92214621
H       -0.58635957      -3.39296667      -0.21685379
H       -2.24061957      -3.24531667       0.48670621
C        2.58664043       1.02703333       1.79614621
C        1.60164043       1.78903333       0.94714621
O        0.62864043       1.22403333       0.45214621
N        1.85564043       3.07103333       0.74214621
H        2.07964043       0.70603333       2.70514621
H        3.42264043       1.67003333       2.07614621
H        1.23464043       3.58103333       0.12714621
H        2.62664043       3.54203333       1.21014621
H        2.96033443       0.14526333       1.25500621
