23
Properties=species:S:1:pos:R:3 pbc="F F F"
C       -0.56938109       2.06986395      -1.94508832
C       -0.03038109       0.22486395       1.39691168
C        0.21461891       0.99486395       0.23591168
C       -1.32738109      -0.18913605       1.68191168
C       -0.83438109       1.27986395      -0.66208832
C       -2.38038109       0.06586395       0.79991168
C       -2.14338109       0.84686395      -0.35108832
H        0.77761891      -0.00613605       2.07791168
H        1.21561891       1.33086395       0.01291168
H       -1.51338109      -0.75713605       2.58191168
H       -3.37538109      -0.29113605       1.01391168
H       -1.24438109       1.68486395      -2.70308832
H        0.44461891       1.85186395      -2.28408832
H       -2.96038109       1.06786395      -1.02308832
H       -0.68484509       3.16067395      -1.86261432
C        2.70361891      -1.72613605      -0.43908832
C        3.43861891      -3.04213605      -0.33408832
H        3.40661891      -0.90413605      -0.32008832
H        2.23261891      -1.63113605      -1.41208832
H        1.94061891      -1.67113605       0.33891168
H        2.70061891      -3.84313605      -0.32908832
H        4.05807531      -3.08923605       0.57368668
H        4.06482971      -3.15599605      -1.23124832
