16
Properties=species:S:1:pos:R:3 pbc="F F F"
C        1.14660661       2.85575376      -1.43244703
S        1.42260661       1.39675376      -0.41944703
H        0.62360661       1.74575376       0.59955297
H        1.43060661       3.70075376      -0.82144703
H        0.10260661       2.92675376      -1.74544703
H        1.83632661       2.91159876      -2.28752703
C       -1.28339339      -0.25824624       0.34955297
C       -2.14939339      -0.21624624       1.60455297
C       -0.51239339      -1.55824624       0.18555297
O        0.04560661      -2.06324624       1.18755297
O       -0.44339339      -2.05724624      -0.96444703
H       -1.88439339      -0.09924624      -0.54644703
H       -0.63339339       0.57175376       0.49655297
H       -1.51639339      -0.29924624       2.48855297
H       -2.87565339      -1.04182124       1.57347297
H       -2.66953339       0.75294576       1.61543297
