34
Properties=species:S:1:pos:R:3 pbc="F F F"
C        1.14402042       3.58568373       0.06485681
C        1.57802042       0.99768373       0.26085681
C        1.82102042       2.30568373      -0.28314319
C        2.43802042       0.09468373      -0.43114319
C        2.77802042       2.14468373      -1.23214319
C        0.71902042       0.49668373       1.24185681
C        2.46002042      -1.27231627      -0.17114319
C        0.74902042      -0.86931627       1.50585681
C        1.61602042      -1.74431627       0.82085681
N        3.16702042       0.82968373      -1.33114319
H        0.01102042       1.14668373       1.72185681
H        0.11602042       3.34368373       0.33585681
H        1.07302042       4.17468373      -0.85114319
H        3.13802042       2.94768373      -1.86214319
H        3.73802042       0.43368373      -2.07314319
H        3.11302042      -1.93431627      -0.71814319
H        0.08602042      -1.27731627       2.23985681
H        1.60402042      -2.79831627       1.04385681
H        1.56045042       4.23811273       0.84647681
C       -2.30797958      -3.21631627       0.94885681
C       -1.83297958      -0.09731627      -1.17514319
C       -1.66497958      -1.39231627      -0.67414319
C       -2.85597958       0.73468373      -0.75614319
C       -2.52497958      -1.87431627       0.31585681
C       -3.73697958       0.24568373       0.20285681
C       -3.57297958      -1.03731627       0.73285681
H       -1.11897958       0.27668373      -1.89314319
H       -0.82897958      -1.98931627      -1.01014319
H       -2.95897958       1.73568373      -1.14314319
H       -4.52797958       0.87868373       0.56985681
H       -2.72397958      -3.18431627       1.95685681
H       -1.23397958      -3.35731627       1.05385681
H       -4.25297958      -1.37931627       1.50085681
H       -2.74737258      -4.08352027       0.43417681
