24
Properties=species:S:1:pos:R:3 pbc="F F F"
C        1.34927038       1.83681757       2.67885480
C        1.69227038       2.02981757       4.16385480
H        0.61227038       1.04181757       2.56085480
H        0.93227038       2.75981757       2.27885480
H        2.23827038       1.59381757       2.09785480
H        2.47327038       2.77381757       4.20085480
H        2.02549038       1.07226757       4.59054480
H        0.80480038       2.40121757       4.69720480
C       -2.38372962      -2.46218243       0.09585480
C        0.83727038      -0.46718243      -0.35714520
C        0.50327038       0.36381757      -1.42514520
C       -0.09272962      -1.39218243       0.11785480
C       -1.36072962      -1.49818243      -0.46414520
C       -0.75472962       0.26781757      -2.01914520
C       -1.68172962      -0.65818243      -1.53514520
O        1.39127038       1.28381757      -1.88014520
H        1.81327038      -0.38318243       0.09685480
H        0.16927038      -2.00818243       0.96485480
H       -1.01472962       0.91081757      -2.84214520
H        1.02627038       1.80381757      -2.60014520
H       -3.30372962      -1.91018243       0.26485480
H       -2.03972962      -2.80718243       1.07185480
H       -2.66772962      -0.69418243      -1.98014520
H       -2.61224962      -3.34249243      -0.52287520
