21
Properties=species:S:1:pos:R:3 pbc="F F F"
C        1.05234711      -0.75746930      -2.30565953
C        2.34234711      -0.34546930      -1.60465953
C        0.29334711       0.38853070      -2.96665953
H        1.31034711      -1.49746930      -3.06365953
H        0.39134711      -1.24346930      -1.58965953
H        2.10934711       0.43353070      -0.87465953
H       -0.02665289       1.11153070      -2.21565953
H        0.94934711       0.87753070      -3.68865953
H        3.08027711       0.03562070      -2.32592953
H        2.76206711      -1.20870930      -1.06738953
H       -0.57618289      -0.03759930      -3.48851953
C       -1.14365289      -0.63446930       0.74034047
C       -2.12465289      -1.18846930       1.77134047
C       -0.34265289       0.53153070       1.29134047
O       -1.01165289       1.49453070       1.72134047
O        0.90734711       0.46453070       1.34234047
H       -0.46665289      -1.43446930       0.44134047
H       -1.69365289      -0.30846930      -0.14465953
H       -2.84865289      -0.40546930       2.00834047
H       -1.58046289      -1.48282930       2.68085047
H       -2.67342289      -2.03334930       1.32972047
