13
Properties=species:S:1:pos:R:3 pbc="F F F"
C        2.22467854      -0.38583957       2.04247827
O        1.26767854      -1.14983957       1.32847827
H        0.43867854      -0.64183957       1.22947827
H        1.86067854      -0.21483957       3.05247827
H        2.36967854       0.57016043       1.55247827
H        3.18286254      -0.92279657       2.10214027
C        0.31167854       1.04516043      -1.26052173
C       -1.00132146       0.37316043      -0.89052173
O       -1.13732146      -0.07883957       0.26847827
O       -1.89732146       0.29816043      -1.76152173
H        0.98067854       1.04716043      -0.40152173
H        0.10867854       2.08416043      -1.52752173
H        0.81306054       0.54449843      -2.10192173
