16
Properties=species:S:1:pos:R:3 pbc="F F F"
C       -1.69622023       0.22422579      -1.19626602
C       -2.56622023      -0.92377421      -0.74226602
H       -2.20622023       0.81522579      -1.95726602
H       -1.50622023       0.88322579      -0.34626602
H       -0.73522023      -0.13377421      -1.57026602
H       -3.51922023      -0.49377421      -0.44926602
H       -2.74543023      -1.61694591      -1.57737002
H       -2.15395023      -1.40135591       0.15881798
C        1.43877977       0.38422579       0.64973398
C        2.82977977       0.30122579       1.28273398
H        1.05077977      -0.61677421       0.45873398
H        0.76277977       0.89422579       1.33773398
H        1.45877977       0.96222579      -0.27526602
H        3.24477977       1.30822579       1.32173398
H        3.47622977      -0.33717621       0.66261298
H        2.79999977      -0.09535521       2.30832498
