22
Properties=species:S:1:pos:R:3 pbc="F F F"
C       -0.56184672       0.99036885      -0.54542845
C       -1.66484672       1.66636885      -1.36142845
C        0.79915328       1.56136885      -0.93942845
C       -0.80784672       1.21336885       0.94557155
H       -0.56984672      -0.07163115      -0.76142845
H       -1.39184672       1.62936885      -2.41242845
H       -1.66884672       2.72236885      -1.08142845
H        0.83015328       2.63336885      -0.73542845
H        1.58215328       1.06536885      -0.36542845
H        0.98515328       1.39036885      -1.99942845
H       -1.70384672       0.69336885       1.27557155
H        0.03615328       0.83036885       1.51857155
H       -0.90984672       2.27836885       1.15257155
H       -2.68469672       1.27461885      -1.23322845
C        0.64515328      -2.33363115       0.37057155
C        1.50815328      -2.97963115       1.45657155
H       -0.13184672      -3.02563115       0.03757155
H        0.17315328      -1.44363115       0.77757155
H        1.27015328      -2.03863115      -0.47042845
H        2.38915328      -2.35763115       1.61357155
H        1.80753328      -3.99193115       1.14736155
H        0.96521328      -2.99707115       2.41308155
