16
Properties=species:S:1:pos:R:3 pbc="F F F"
C       -0.06998602      -1.47661354      -0.98705894
C       -0.70398602      -2.74661354      -1.36705894
H        0.43101398      -1.57461354      -0.02905894
H        0.67801398      -1.19561354      -1.72805894
H       -0.82598602      -0.69361354      -0.93005894
H        0.05801398      -3.52561354      -1.36405894
H       -1.52271602      -3.04531354      -0.69588994
H       -1.08621602      -2.62734354      -2.39159694
C        0.42001398       1.38238646       1.39894106
C        0.34801398       2.83938646       0.95894106
H        0.19201398       0.73038646       0.56194106
H        1.42601398       1.16238646       1.75594106
H       -0.28998602       1.20038646       2.20594106
H        0.67001398       3.46538646       1.79094106
H       -0.67825602       3.11648646       0.67612706
H        1.01890398       3.00440646       0.10297806
