21
Properties=species:S:1:pos:R:3 pbc="F F F"
C        0.38734341      -2.49557628       0.17345310
C       -1.01265659      -0.46957628      -0.01954690
N       -0.21565659      -1.37857628      -0.56454690
N       -1.31465659      -0.51557628       1.26545310
N       -1.50765659       0.50042372      -0.76254690
H        0.00934341      -1.28557628      -1.54654690
H       -0.87165659      -1.18757628       1.89545310
H       -1.89465659       0.21042372       1.66445310
H       -1.35665659       0.49042372      -1.76354690
H       -2.28465659       1.02942372      -0.39554690
H       -0.34065659      -2.88657628       0.88745310
H        1.26134341      -2.14157628       0.72345310
H        0.69054341      -3.32307628      -0.48480690
C        2.00834341       1.47542372       0.25645310
C        1.64334341       2.80542372      -0.38754690
H        2.75834341       1.64042372       1.03145310
H        1.13634341       1.01542372       0.71445310
H        2.42234341       0.80042372      -0.49454690
H        1.00534341       2.58342372      -1.24454690
H        2.55864341       3.32108372      -0.71362690
H        1.05987341       3.42296372       0.31117310
