19
Properties=species:S:1:pos:R:3 pbc="F F F"
C        0.66442576       0.88828640       1.02606407
C        1.66842576      -0.21271360       0.83806407
C        0.52042576       1.01728640       2.53406407
H       -0.27957424       0.70828640       0.54906407
H        1.13142576       1.80328640       0.67206407
H        1.16742576      -1.17971360       0.90606407
H        2.19042576      -0.12671360      -0.11593593
H        0.41742576       2.06528640       2.81406407
H        2.35796576      -0.09548360       1.68706407
H        1.46027576       0.62000640       2.94496407
H       -0.34477424       0.44072640       2.89324407
C       -0.85157424      -0.56771360      -1.71793593
C       -1.96557424      -1.06871360      -2.61893593
H       -0.03957424      -1.29171360      -1.64593593
H       -0.49057424       0.37028640      -2.11193593
H       -1.30357424      -0.42371360      -0.74293593
H       -2.56657424      -0.21771360      -2.93493593
H       -2.60527424      -1.81754160      -2.12899593
H       -1.52552424      -1.52771060      -3.51652593
