27
Properties=species:S:1:pos:R:3 pbc="F F F"
C       -3.23535506      -1.65101922       0.75122482
C       -4.31435506      -2.69601922       0.37422482
H       -3.56335506      -0.64901922       0.47522482
H       -3.03335506      -1.67701922       1.82022482
H       -2.29335506      -1.87001922       0.24722482
H       -3.94235506      -3.70001922       0.58822482
H       -4.54191586      -2.61561922      -0.69897518
H       -5.22131506      -2.50090522       0.96528482
C        0.43164494      -0.04701922      -3.00277518
C       -1.04335506       0.84798078      -1.07977518
C        0.14064494       0.39098078      -1.59777518
C        0.38864494       0.82898078       0.64322482
C        1.06864494       0.35398078      -0.51077518
C        1.00564494       0.91298078       1.88222482
C        2.41764494      -0.01601922      -0.39777518
C        2.33964494       0.54098078       1.96822482
C        3.04064494       0.06998078       0.84122482
N       -0.89335506       1.11398078       0.25722482
H       -1.97435506       0.93998078      -1.62677518
H       -1.65135506       1.36398078       0.88222482
H        0.20764494      -1.11001922      -3.09777518
H        1.50064494       0.08198078      -3.17577518
H        0.46464494       1.26398078       2.75022482
H        2.96064494      -0.36301922      -1.26377518
H        2.84764494       0.59798078       2.92422482
H        4.07764494      -0.22401922       0.94222482
H       -0.11583006       0.51345678      -3.77487518
