16
Properties=species:S:1:pos:R:3 pbc="F F F"
C        1.63635871       1.53659612      -0.03952776
C        1.79135871       0.83359612      -1.37152776
H        1.85435871       0.84459612       0.77147224
H        2.31935871       2.38259612       0.02447224
H        0.61135871       1.89159612       0.08047224
H        1.10435871      -0.00840388      -1.37552776
H        1.51945471       1.52814212      -2.18002776
H        2.81216771       0.44020412      -1.48638776
C       -1.59864129      -0.45940388       0.47547224
C       -1.81964129      -1.91040388       0.92947224
H       -2.26964129      -0.21940388      -0.34952776
H       -1.81164129       0.23359612       1.29047224
H       -0.56964129      -0.31340388       0.15647224
H       -2.79864129      -1.97340388       1.37747224
H       -1.06498729      -2.19447488       1.67767224
H       -1.81892729      -2.61622148       0.08578224
