23
Properties=species:S:1:pos:R:3 pbc="F F F"
C       -2.76286532      -1.03263868      -2.24340194
C        0.07813468       1.13836132       0.19359806
C        0.48713468       0.67636132      -1.03940194
C       -1.19386532       0.88236132       0.60759806
C       -0.42686532       0.00436132      -1.84040194
C       -2.08286532       0.15236132      -0.15240194
C       -1.74486532      -0.25663868      -1.41240194
H        0.75813468       1.69236132       0.82759806
H        1.49413468       0.86136132      -1.38840194
H       -1.51886532       1.23436132       1.56559806
H       -0.09086532      -0.31163868      -2.81340194
H       -3.04086532      -0.10963868       0.25959806
H       -3.75486532      -0.60963868      -2.08040194
H       -2.77586532      -2.05863868      -1.88540194
H       -2.54741532      -1.03839868      -3.32208194
C        3.06513468      -0.24163868       2.10259806
C        3.81413468      -0.98963868       3.19759806
H        2.04813468      -0.01463868       2.42059806
H        3.58413468       0.68836132       1.87359806
H        3.02713468      -0.84563868       1.20159806
H        4.84113468      -1.16463868       2.87459806
H        3.30292968      -1.94878868       3.36702806
H        3.80979868      -0.34570868       4.08941806
