16
Properties=species:S:1:pos:R:3 pbc="F F F"
C        1.58454199       0.56185931       0.12761633
C        2.91454199      -0.08514069       0.43661633
H        0.78354199       0.04385931       0.65461633
H        1.61754199       1.59185931       0.47861633
H        1.39154199       0.57685931      -0.94438367
H        3.03354199      -0.16514069       1.51861633
H        3.70154199       0.56985931       0.06761633
H        3.05292199      -1.06811969      -0.03730767
C       -1.85145801       0.23385931      -0.71838367
C       -2.65545801      -0.72014069       0.14761633
H       -2.37145801       0.43185931      -1.65738367
H       -1.71945801       1.17285931      -0.19038367
H       -0.87745801      -0.19814069      -0.93938367
H       -2.22545801      -0.71114069       1.14961633
H       -2.59311801      -1.74631169      -0.24364667
H       -3.70035801      -0.38435569       0.22127233
