17
Properties=species:S:1:pos:R:3 pbc="F F F"
C        1.27306205      -0.71105070       0.59426945
C        2.69506205      -0.76705070       1.14926945
O        1.12206205       0.37694930      -0.30073055
H        1.05706205      -1.64805070       0.07826945
H        0.56706205      -0.59105070       1.41826945
H        3.35106205      -1.01105070       0.31626945
H        0.44906205       0.17494930      -0.95973055
H        2.75538205      -1.53840170       1.93117645
H        2.98377205       0.22352530       1.53059445
C       -2.06593795      -0.04905070      -0.67773055
C       -3.03993795       1.12894930      -0.68373055
H       -2.56993795      -0.92505070      -0.26673055
H       -1.75993795      -0.29105070      -1.69273055
H       -1.21893795       0.15494930      -0.04873055
H       -4.01293795       0.75594930      -0.97673055
H       -3.11407795       1.57594230       0.31861645
H       -2.73988795       1.88124630      -1.42805535
