18
Properties=species:S:1:pos:R:3 pbc="F F F"
C        1.57982854       1.52049796      -0.52792513
C        1.76582854       0.26049796      -1.36592513
N        1.24182854       2.68749796      -1.38792513
H        0.78582854       1.35049796       0.20407487
H        2.50582854       1.71749796       0.02207487
H        2.54482854       0.44049796      -2.10992513
H        0.83182854       0.02849796      -1.88392513
H        0.37582854       2.53249796      -1.88892513
H        1.12082854       3.52449796      -0.83092513
H        1.96882854       2.87549796      -2.06692513
H        2.05722664      -0.59782804      -0.74273713
C       -0.74717146      -1.62150204       2.18507487
C       -1.20617146      -1.18250204       0.79707487
O       -1.08817146       0.02449796       0.48507487
O       -1.69217146      -2.03450204       0.01807487
H       -1.07617146      -0.87450204       2.91207487
H        0.34282854      -1.65850204       2.23707487
H       -1.17461946      -2.59101204       2.48061287
