18
Properties=species:S:1:pos:R:3 pbc="F F F"
C        0.09311146       0.83738345       1.61299573
C        1.30611146       0.34338345       2.39799573
C       -0.89588854       1.62838345       2.47699573
H        0.41411146       1.43238345       0.75799573
H       -0.43888854      -0.04061655       1.27399573
H        0.93111146      -0.23161655       3.24799573
H       -1.20888854       0.98438345       3.30099573
H       -0.42288854       2.49638345       2.92099573
H        1.88567146       1.19315345       2.78787573
H        1.90999146      -0.35240655       1.79698573
H       -1.78616854       1.96513345       1.92562573
C       -0.42488854       0.46638345      -2.42700427
C       -0.09588854      -0.76761655      -1.58700427
O        0.99311146      -1.36061655      -1.74500427
O       -0.95988854      -1.14161655      -0.75300427
H       -0.30388854       1.35838345      -1.80900427
H       -1.48188854       0.42438345      -2.70000427
H        0.18225146       0.60241345      -3.33413127
