16
Properties=species:S:1:pos:R:3 pbc="F F F"
C        0.51198598       1.51348949       0.51023819
C        0.93098598       2.97948949       0.61523819
H        0.65998598       1.18148949      -0.51676181
H        1.12398598       0.90448949       1.17523819
H       -0.53301402       1.38048949       0.78423819
H        0.80298598       3.30148949       1.65023819
H        0.30718798       3.60971149      -0.03568181
H        1.99412898       3.08249049       0.35233369
C       -0.95201402      -1.53951051      -0.73376181
C       -0.49301402      -2.95051051      -0.38976181
H       -0.14201402      -0.84751051      -0.53676181
H       -1.21601402      -1.48851051      -1.79076181
H       -1.82501402      -1.26151051      -0.15076181
H       -1.29201402      -3.64951051      -0.63276181
H       -0.24275102      -3.04444851       0.67726389
H        0.38704598      -3.20391551      -0.99908981
