19
Properties=species:S:1:pos:R:3 pbc="F F F"
C        1.32717871       1.72289367      -0.67116592
C        0.97517871       2.77089367      -1.67016592
H        2.12317871       1.06189367      -0.98416592
H        1.63917871       2.20889367       0.25083408
H        0.44817871       1.16789367      -0.43216592
H        1.82917871       3.42989367      -1.72516592
H        0.11717871       3.34089367      -1.30816592
H        0.73525871       2.31208367      -2.64069592
C       -0.29082129      -1.25910633       0.94983408
C       -1.68882129      -0.67110633       1.07283408
C       -0.34282129      -2.64810633       0.37383408
H        0.32017871      -0.66910633       0.28883408
H        0.19017871      -1.28910633       1.92783408
H       -2.28082129      -1.26910633       1.76883408
H       -2.16882129      -0.71410633       0.09283408
H       -0.75082129      -3.33010633       1.11583408
H       -0.96982129      -2.66210633      -0.52116592
H       -1.67063129       0.37818367       1.40246408
H        0.67798871      -2.95884633       0.10666408
