18
Properties=species:S:1:pos:R:3 pbc="F F F"
C        0.51821909      -0.43552847       2.08886306
C        1.38321909      -1.67752847       2.44086306
C        1.27221909       0.89647153       2.32086306
H        0.26121909      -0.48352847       1.03986306
H       -0.40178091      -0.45352847       2.67486306
H        1.37121909      -1.80952847       3.52386306
H        2.41521909      -1.47752847       2.14786306
H        1.50721909       0.95747153       3.38486306
H        2.21821909       0.88647153       1.77586306
H        1.05861909      -2.61209847       1.96002306
H        0.70813909       1.80141153       2.05087306
C       -1.81878091      -0.56652847      -2.26213694
C       -0.73278091       0.34147153      -1.69013694
O       -0.96978091       0.84747153      -0.57513694
O        0.32721909       0.58447153      -2.32013694
H       -2.74378091       0.00547153      -2.37413694
H       -2.02478091      -1.34652847      -1.52813694
H       -1.58344091      -1.01777847      -3.23732694
