15
Properties=species:S:1:pos:R:3 pbc="F F F"
C        0.09299335      -0.10088851       1.77655396
C       -0.72500665      -0.98988851       0.84855396
O       -0.47500665      -0.89188851      -0.38844604
O       -1.54600665      -1.80888851       1.25655396
H        1.06599335       0.10811149       1.32755396
H        0.27099335      -0.60188851       2.72255396
H       -0.42845665       0.85091849       1.95587396
C        1.92699335       2.07311149      -1.39844604
N        0.58599335       1.45811149      -1.78844604
H        0.58099335       1.19511149      -2.76844604
H        0.39299335       0.59911149      -1.26544604
H       -0.18700665       2.09311149      -1.63344604
H        2.72399335       1.33211149      -1.51944604
H        1.91299335       2.37411149      -0.34544604
H        2.17164735       2.94924649      -2.01693704
