17
Properties=species:S:1:pos:R:3 pbc="F F F"
C        0.20102272       0.77421041       1.97893243
N        0.30002272      -0.51378959       1.41593243
H        0.62402272      -1.14278959       2.15493243
H        1.01402272      -0.72178959       0.72693243
H       -0.60397728      -0.97178959       1.26193243
H        0.32602272       0.33321041       2.98293243
H        1.09802272       1.20821041       2.41693243
H       -0.75828928       1.17596041       2.33714243
C        1.08102272       0.71421041      -0.55006757
C       -0.18697728      -0.06978959      -0.88006757
O       -1.10097728      -0.38578959      -0.12406757
N       -0.35197728      -0.37878959      -2.10606757
H        1.45802272       1.09721041      -1.50306757
H        1.93102272       0.08621041      -0.25806757
H       -1.19797728      -0.87778959      -2.35006757
H        0.34502272      -0.17778959      -2.81006757
H        0.91229872       1.61359041       0.06038243
