18
Properties=species:S:1:pos:R:3 pbc="F F F"
C        0.36976085       0.82360425       2.53988896
C       -0.08723915      -0.29439575       3.47688896
H        1.40876085       0.67160425       2.24888896
H       -0.26323915       0.81560425       1.65588896
H        0.26376085       1.79260425       3.02588896
H       -1.15623915      -0.17939575       3.65688896
H        0.44100285      -0.21688175       4.43862896
H        0.09021185      -1.27037575       3.00151896
C        0.63276085       0.70260425      -1.24011104
C        1.91176085      -0.08139575      -1.55611104
C       -0.61023915      -0.15639575      -1.15211104
O       -0.53223915      -1.38539575      -1.39911104
O       -1.67923915       0.42060425      -0.83411104
H        0.75476085       1.23260425      -0.29611104
H        0.48776085       1.44960425      -2.02511104
H        1.77576085      -0.64739575      -2.47811104
H        2.11476085      -0.77439575      -0.73911104
H        2.76861685       0.59518325      -1.69042104
