23
Properties=species:S:1:pos:R:3 pbc="F F F"
C       -3.20910431       0.10108680       1.10212561
C        0.32789569      -0.06391320      -1.34987439
C        0.10389569      -1.03891320      -0.38787439
C       -0.57010431       0.96708680      -1.48987439
C       -1.05210431      -1.00091320       0.38312561
C       -1.72510431       1.00808680      -0.72987439
C       -1.99310431       0.02008680       0.21012561
H        1.22389569      -0.08891320      -1.95587439
H        0.83589569      -1.80191320      -0.23087439
H       -0.37610431       1.73208680      -2.22387439
H       -1.21410431      -1.76491320       1.13212561
H       -2.40410431       1.84008680      -0.84587439
H       -3.56310431      -0.91091320       1.29712561
H       -4.00810431       0.64208680       0.59112561
H       -2.98973431       0.58199680       2.06680561
C        3.37289569       0.69408680       0.82212561
C        3.95389569      -0.70591320       0.99012561
H        2.87589569       0.79208680      -0.14087439
H        2.63489569       0.87508680       1.60212561
H        4.16389569       1.44108680       0.90212561
H        3.14389569      -1.42791320       0.92012561
H        4.36489569      -0.75491320       1.99712561
H        4.73655569      -0.92603320       0.24918561
