20
Properties=species:S:1:pos:R:3 pbc="F F F"
C       -1.32697241       0.22503122       2.34984224
C       -2.75697241       0.52303122       2.80484224
C       -0.53497241       1.33303122       3.03484224
H       -1.26897241       0.32503122       1.26984224
H       -0.99997241      -0.76596878       2.66684224
H       -3.47397241       0.13603122       2.07884224
H       -2.93597241       0.09003122       3.78984224
H        0.44302759       1.47603122       2.57184224
H       -0.42097241       1.10003122       4.09484224
H       -2.79355241       1.62050122       2.86979224
H       -1.19092241       2.20787122       2.91492224
C       -0.02997241      -0.10796878      -1.09215776
C        1.30302759      -1.55896878      -2.96415776
S        1.56602759      -0.16696878      -1.86015776
H       -0.15397241      -0.96896878      -0.43415776
H       -0.10797241       0.81403122      -0.51515776
H       -0.80497241      -0.12096878      -1.85415776
H        0.37702759      -1.42796878      -3.52315776
H        1.23002759      -2.46896878      -2.36915776
H        2.16099759      -1.64113078      -3.64762776
