33
Properties=species:S:1:pos:R:3 pbc="F F F"
C       -2.89318249      -2.35723514       1.77179705
C       -1.47718249      -0.27023514       1.15079705
C       -2.67018249      -0.89223514       1.64479705
C       -1.70818249       1.11976486       1.13279705
C       -3.55718249       0.11176486       1.89179705
C        0.73181751       0.14076486       0.31979705
C        0.48281751       1.51376486       0.31579705
C       -0.22318249      -0.75123514       0.74779705
C       -0.73718249       2.02076486       0.72679705
N       -2.98318249       1.31676486       1.58979705
H        1.70581751      -0.22523514       0.03079705
H        1.26481751       2.18776486      -0.00520295
H       -0.00918249      -1.80623514       0.80379705
H       -0.93218249       3.08176486       0.73779705
H       -3.49018249      -2.55223514       2.66379705
H       -1.92518249      -2.83123514       1.93379705
H       -4.56718249      -0.02723514       2.25979705
H       -3.40718249       2.23376486       1.75279705
H       -3.35758249      -2.83024714       0.89396705
C        3.09281751      -0.32623514      -2.52220295
C        3.33481751      -0.32723514      -4.03820295
C        3.46681751      -1.67723514      -1.91620295
C        3.91381751       0.74176486      -1.84320295
H        2.04281751      -0.12823514      -2.31520295
H        4.36081751      -0.65323514      -4.21120295
H        4.50981751      -1.91223514      -2.12820295
H        3.32481751      -1.65723514      -0.83520295
H        2.83181751      -2.46523514      -2.31920295
H        3.55781751       1.72976486      -2.12820295
H        3.81781751       0.65776486      -0.76120295
H        4.96581751       0.64076486      -2.11320295
H        3.17425751       0.66688486      -4.48086695
H        2.65464751      -1.05110514      -4.51082995
