16
Properties=species:S:1:pos:R:3 pbc="F F F"
C       -1.61195458      -0.57006345      -0.14734311
C       -2.81795458      -1.55406345      -0.47034311
H       -1.32395458      -0.65106345       0.90065689
H       -0.75595458      -0.84606345      -0.76234311
H       -1.89995458       0.45693655      -0.37034311
H       -2.53595458      -2.56206345      -0.17234311
H       -2.93995458      -1.54406345      -1.55134311
H       -3.75441458      -1.26408345       0.02861889
C        1.66504542       0.86593655       0.80365689
C        2.75804542       1.25893655      -0.18434311
H        1.12804542      -0.00506345       0.43565689
H        2.11104542       0.62393655       1.76865689
H        0.97004542       1.69493655       0.93465689
H        3.33904542       2.05993655       0.26365689
H        2.31454542       1.62048655      -1.12380611
H        3.42870542       0.40727655      -0.37111811
