27
Properties=species:S:1:pos:R:3 pbc="F F F"
C       -0.06169948      -1.51821921      -4.62254034
C       -1.00469948      -1.46721921      -5.87354034
H        0.28530052      -0.51221921      -4.37554034
H       -0.59669948      -1.92721921      -3.76854034
H        0.80430052      -2.15221921      -4.82154034
H       -1.34769948      -2.47221921      -6.11754034
H       -0.44092148      -1.06121921      -6.72638034
H       -1.85359648      -0.80061921      -5.66132034
C       -1.23669948      -1.00821921       3.52645966
C       -0.12469948      -0.03521921       1.31445966
C       -0.60769948       0.08678079       2.68045966
C        0.55130052       1.17878079       0.97745966
C       -0.24769948       1.32878079       3.09545966
C        0.43830052      -0.83221921      -0.90354034
C        1.10330052       0.37478079      -1.21154034
C       -0.16869948      -1.05421921       0.34545966
C        1.16830052       1.40178079      -0.27354034
N        0.44630052       1.98278079       2.09345966
H        0.38930052      -1.61921921      -1.64454034
H        1.56330052       0.49778079      -2.17954034
H       -0.64169948      -2.01121921       0.54445966
H        1.66830052       2.34278079      -0.47654034
H       -0.66169948      -1.06021921       4.45745966
H       -1.09069948      -1.94021921       2.98145966
H       -0.50869948       1.65578079       4.09745966
H        0.82630052       2.91878079       2.17045966
H       -2.32455548      -1.00821921       3.68945966
