17
Properties=species:S:1:pos:R:3 pbc="F F F"
C        2.24747675       0.82343880       0.14986950
C        3.22347675       0.25743880      -0.88213050
H        1.56747675       1.53043880      -0.32713050
H        1.66947675       0.01043880       0.59086950
H        2.79747675       1.33043880       0.94486950
H        3.86247675      -0.46156120      -0.37113050
H        3.84482675       1.07424880      -1.27805050
H        2.70774675      -0.26694120      -1.70008050
C       -1.49952325       0.12843880       0.07986950
C       -3.01252325      -0.09656120      -0.12813050
O       -0.91852325      -1.04156120       0.66386950
H       -1.01752325       0.33743880      -0.87613050
H       -1.34652325       0.98343880       0.73986950
H       -3.42652325       0.83443880      -0.48413050
H       -0.85052325      -0.89356120       1.62186950
H       -3.50439625      -0.35692120       0.82069950
H       -3.15119225      -0.84944120      -0.91803050
