18
Properties=species:S:1:pos:R:3 pbc="F F F"
C       -1.71443576       0.51533016      -1.48431302
C       -0.47943576       1.21733016      -2.02231302
O       -0.57143576       2.09233016      -2.88131302
N        0.68156424       0.85633016      -1.50031302
H        1.53356424       1.25433016      -1.85831302
H        0.69656424       0.10133016      -0.81831302
H       -2.17043576       1.17433016      -0.75931302
H       -1.43843576      -0.41066984      -0.98431302
H       -2.45152576       0.28665016      -2.26815302
C       -0.57043576      -1.44066984       2.89268698
C        0.51256424      -1.15066984       1.88068698
O        0.28456424      -1.15266984       0.67268698
N        1.72056424      -0.92666984       2.36868698
H       -0.30643576      -0.99466984       3.84968698
H       -0.59743576      -2.52166984       3.02668698
H        2.46356424      -0.67266984       1.73968698
H        1.84056424      -0.84266984       3.37368698
H       -1.56529576      -1.07942984       2.59308698
