24
Properties=species:S:1:pos:R:3 pbc="F F F"
C        2.21507034      -1.56538684       1.17559649
C        2.12507034      -3.09238684       1.23559649
H        3.24707034      -1.26738684       1.26559649
H        1.82007034      -1.19338684       0.23259649
H        1.62007034      -1.08838684       1.95359649
H        1.07707034      -3.37238684       1.14959649
H        2.52796034      -3.45748684       2.19183249
H        2.68231034      -3.54778684       0.40367749
C       -0.22592966       3.16261316       1.13959649
C       -1.31592966      -0.38638684       0.26359649
C       -0.79292966      -0.53238684      -1.01940351
C       -1.12192966       0.81061316       0.95859649
C       -0.40692966       1.86861316       0.38459649
C       -0.07892966       0.51461316      -1.60740351
C        0.11207034       1.70861316      -0.90140351
O       -0.97992966      -1.70538684      -1.69040351
H       -1.86392966      -1.20138684       0.71359649
H       -1.52992966       0.91761316       1.95559649
H        0.33307034       0.39161316      -2.59540351
H       -0.58792966      -1.68638684      -2.57040351
H        0.73807034       3.61161316       0.89259649
H       -0.20492966       2.91261316       2.19859649
H        0.66207034       2.51261316      -1.35340351
H       -1.04019966       3.88409316       0.97702949
