18
Properties=species:S:1:pos:R:3 pbc="F F F"
C        1.50829959       2.54933814       1.96273957
O        1.42929959       2.03433814       0.63673957
H        0.98629959       1.16433814       0.64073957
H        2.19229959       3.39933814       1.97073957
H        0.51410959       2.88648454       2.29125957
H        1.89350959       1.76950014       2.63613957
C       -2.00170041       0.68733814      -1.11526043
C       -1.04570041      -0.40366186      -0.73126043
C        0.66529959      -1.35266186       0.27873957
C       -1.02270041      -1.71566186      -1.08926043
N        0.01229959      -0.20266186       0.13073957
N        0.05729959      -2.28566186      -0.44926043
H        1.54229959      -1.50866186       0.89673957
H       -2.12270041       1.36533814      -0.27826043
H       -2.96570041       0.23233814      -1.30626043
H        0.34129959      -3.25766186      -0.50126043
H       -1.72970041      -2.20966186      -1.74426043
H       -1.70663041       1.25078514      -2.01273043
