29
Properties=species:S:1:pos:R:3 pbc="F F F"
C       -0.95782544      -0.55318250       1.97099938
C       -0.41482544      -0.06918250       3.33399938
C       -0.46782544      -1.96218250       1.63999938
C       -2.48582544      -0.45418250       1.92899938
H       -0.56582544       0.12581750       1.21699938
H       -0.87182544       0.88981750       3.57799938
H       -0.90482544      -2.69918250       2.31399938
H       -0.75582544      -2.20518250       0.62099938
H        0.61917456      -2.01918250       1.70199938
H       -2.92982544      -1.32018250       2.41899938
H       -2.80282544       0.43881750       2.46899938
H        0.68000456       0.03352750       3.30584838
H       -0.65329544      -0.77512250       4.14317938
H       -2.88837544      -0.37411250       0.90843838
C        2.47917456      -1.14418250      -1.15000062
C        1.34717456       1.00881750      -0.54200062
C        1.35417456      -0.16818250      -1.27900062
C        0.35317456       1.94881750      -0.70500062
C       -0.65482544       1.72281750      -1.61400062
C        0.34617456      -0.36818250      -2.20700062
C       -0.65882544       0.57881750      -2.36700062
H        2.13017456       1.19081750       0.17399938
H        0.35717456       2.85381750      -0.11000062
H        2.13817456      -2.14218250      -1.42300062
H        2.78717456      -1.18218250      -0.10400062
H       -1.44382544       2.45381750      -1.73800062
H        0.34917456      -1.25618250      -2.82000062
H       -1.44582544       0.41081750      -3.09100062
H        3.34241256      -0.85811250      -1.76885862
