34
Properties=species:S:1:pos:R:3 pbc="F F F"
C       -1.13185940      -0.15966667      -1.66178452
C       -2.40085940      -0.91466667      -2.05078452
C       -1.43185940       1.24233333      -1.18078452
C       -1.54285940       2.29233333      -2.08578452
C       -1.67485940       1.49933333       0.16721548
C       -1.86785940       3.57733333      -1.65578452
C       -2.00385940       2.78533333       0.59821548
C       -2.09885940       3.82233333      -0.31478452
O       -2.41885940       5.08433333       0.08221548
H       -0.62485940      -0.69766667      -0.86678452
H       -0.47485940      -0.09566667      -2.52678452
H       -2.94185940      -0.27766667      -2.75378452
H       -1.37285940       2.11233333      -3.13978452
H       -1.62785940       0.69133333       0.88421548
H       -1.94085940       4.38333333      -2.37278452
H       -2.28585940       3.00233333       1.60721548
H       -2.27885940       5.72133333      -0.62678452
H       -3.02245440      -1.10801827      -1.16408552
H       -2.19769940      -1.87262925      -2.55181752
C        3.50314060      -5.02966667       1.59721548
C        1.56114060      -2.23666667      -0.00978452
C        2.14514060      -3.46966667       0.20321548
C        1.69614060      -1.20166667       0.89221548
C        2.89714060      -3.68766667       1.33521548
C        2.39914060      -1.41966667       2.05621548
C        2.98014060      -2.66466667       2.27021548
H        0.95114060      -2.11566667      -0.88578452
H        1.98514060      -4.26066667      -0.51278452
H        1.21514060      -0.25166667       0.70721548
H        2.49314060      -0.63866667       2.79721548
H        2.75614060      -5.76866667       1.40921548
H        3.81214060      -5.09766667       2.64121548
H        3.49914060      -2.84066667       3.19621548
H        4.35436060      -5.27328167       0.94447048
