27
Properties=species:S:1:pos:R:3 pbc="F F F"
C       -2.81363621       1.30582327       3.69477590
C       -0.42663621       0.52782327       0.82877590
C       -1.46563621       1.08682327       1.57577590
C        0.38036379      -0.43217673       1.39477590
C       -1.68063621       0.70082327       2.90377590
C        0.17636379      -0.83117673       2.71177590
C       -0.84663621      -0.26817673       3.46277590
H       -0.26163621       0.84482327      -0.18922410
H       -2.10363621       1.83382327       1.12277590
H        1.17236379      -0.87617673       0.80877590
H        0.80936379      -1.59017673       3.15077590
H       -3.13363621       0.60182327       4.46077590
H       -3.64963621       1.41382327       3.00377590
H       -1.00863621      -0.60417673       4.47277590
H       -2.59482621       2.28615327       4.14319590
C        0.27936379       0.36882327      -2.88222410
C        0.27436379       0.43682327      -4.39822410
C        1.73636379      -2.00417673      -2.83622410
S        1.80436379      -0.31517673      -2.19022410
H        0.17036379       1.38282327      -2.49722410
H       -0.56563621      -0.20917673      -2.52222410
H        0.28536379      -0.57017673      -4.81822410
H        1.18136379       0.95282327      -4.71722410
H        1.77236379      -1.99817673      -3.92422410
H        2.58736379      -2.56717673      -2.45522410
H        0.81136379      -2.48017673      -2.51022410
H       -0.59459621       0.98405327      -4.79248810
