16
Properties=species:S:1:pos:R:3 pbc="F F F"
C       -1.10348408       1.31143293       0.28564672
C       -1.82648408       1.75043293       1.56364672
H       -1.32648408       0.26643293       0.06064672
H       -1.40748408       1.92543293      -0.56035328
H       -0.02648408       1.44043293       0.38864672
H       -1.48848408       2.75443293       1.81964672
H       -1.59205408       1.07697293       2.40120672
H       -2.91056408       1.75471293       1.37725272
C        1.51751592      -0.86856707      -1.28735328
C        1.41251592      -2.19856707      -0.55835328
H        2.36551592      -0.88256707      -1.97235328
H        0.60351592      -0.68456707      -1.85035328
H        1.65151592      -0.06256707      -0.56635328
H        0.53451592      -2.15356707       0.08464672
H        2.31809592      -2.34865707       0.04777472
H        1.27763592      -3.02371707      -1.27314828
