20
Properties=species:S:1:pos:R:3 pbc="F F F"
C       -0.17313598      -1.35046699      -0.08390297
C       -1.63513598      -1.58346699      -0.45990297
C       -0.03213598      -0.77346699       1.30309703
O       -0.86713598       0.01053301       1.74809703
N        1.03286402      -1.14446699       1.99609703
H        0.36886402      -2.29546699      -0.14790297
H        0.28886402      -0.66646699      -0.78790297
H       -2.19813598      -0.66446699      -0.27490297
H        1.15886402      -0.77046699       2.92509703
H        1.71086402      -1.77746699       1.59709703
H       -2.05756798      -2.39815689       0.14658703
H       -1.73013398      -1.83147689      -1.52736297
C        0.58386402       1.72053301      -1.85990297
C        1.00786402       2.99353301      -2.59990297
H        0.22386402       0.97853301      -2.57390297
H        1.44486402       1.31653301      -1.32690297
H       -0.19013598       1.93853301      -1.12390297
H        1.30186402       3.73653301      -1.85690297
H        0.17299802       3.38670501      -3.19858297
H        1.87881302       2.78818101      -3.23965297
