20
Properties=species:S:1:pos:R:3 pbc="F F F"
C        2.48666531      -0.44167609      -0.75280522
C        0.91566531      -1.71967609       0.71719478
N       -0.24133469      -1.67067609       1.33519478
N        1.18766531      -0.73267609      -0.11980522
N        1.71666531      -2.75567609       0.94419478
H       -0.79733469      -0.82667609       1.23919478
H       -0.50133469      -2.37067609       2.01819478
H        0.47366531      -0.00067609      -0.14880522
H        2.56866531      -2.87267609       0.42219478
H        1.39366531      -3.47367609       1.58119478
H        2.32366531      -0.14367609      -1.78980522
H        3.16866531      -1.29267609      -0.71480522
H        2.88951531       0.40115991      -0.17199522
C       -1.14233469       1.82532391      -1.90880522
C       -1.52233469       1.87332391      -0.44780522
O       -0.91133469       1.10832391       0.31919478
O       -2.50033469       2.58132391      -0.13780522
H       -1.68533469       1.00132391      -2.37780522
H       -0.07633469       1.62632391      -2.01480522
H       -1.40168469       2.76082891      -2.42607522
