19
Properties=species:S:1:pos:R:3 pbc="F F F"
C        0.03569920      -0.39221083      -1.43680943
C        0.52369920       0.36378917      -2.67780943
C       -0.91830080      -1.51821083      -1.84480943
H        0.88069920      -0.80821083      -0.88680943
H       -0.49630080       0.30478917      -0.78580943
H       -0.34130080       0.82478917      -3.15980943
H       -1.69130080      -1.10421083      -2.49480943
H       -0.36830080      -2.27721083      -2.40180943
H        1.01739520      -0.32181683      -3.38223043
H        1.23864720       1.15123917      -2.39714243
H       -1.40873180      -1.99941183      -0.98578943
C        0.05069920       0.54578917       2.21019057
C        0.31369920       0.97678917       3.65719057
H       -0.94230080       0.84778917       1.88419057
H        0.11169920      -0.53921083       2.13819057
H        0.79569920       0.98578917       1.54519057
H       -0.42830080       0.53478917       4.31719057
H        0.26435220       2.07315917       3.73157057
H        1.30255620       0.61434917       3.97468057
