16
Properties=species:S:1:pos:R:3 pbc="F F F"
C       -2.63489542       0.48998124       1.59718870
C       -1.40189542      -0.34901876       1.92118870
O       -0.68689542      -0.75101876       0.97118870
O       -1.16389542      -0.61001876       3.12718870
H       -3.03989542       0.91998124       2.51518870
H       -3.39889542      -0.15801876       1.16718870
H       -2.42060442       1.29753124       0.88168870
C        2.52510458       1.02898124      -2.56081130
C        1.43510458       0.23398124      -1.90681130
O        1.27210458      -0.94601876      -2.18881130
N        0.69510458       0.86398124      -1.01381130
H        0.08910458       0.29398124      -0.42181130
H        0.86410458       1.84198124      -0.82681130
H        2.33810458       2.09498124      -2.42581130
H        2.48810458       0.82798124      -3.63081130
H        3.51836458       0.76478124      -2.16884930
