30
Properties=species:S:1:pos:R:3 pbc="F F F"
C       -5.14675932       0.89350169       1.21850728
C       -1.52075932       0.21650169       0.33550728
C       -0.91275932       0.28550169       1.58150728
C       -2.89075932       0.41250169       0.22150728
C       -3.66475932       0.67150169       1.34850728
C       -1.67975932       0.54650169       2.71150728
C       -3.04975932       0.74250169       2.59350728
H       -0.92775932       0.01750169      -0.54749272
H        0.15524068       0.14150169       1.67050728
H       -3.35375932       0.35850169      -0.75349272
H       -1.21175932       0.59250169       3.68450728
H       -5.64775932       0.46150169       2.08550728
H       -5.49775932       0.35950169       0.34150728
H       -3.64075932       0.94650169       3.47550728
H       -5.42531932       1.95391169       1.12947728
C        2.89024068       0.22950169      -3.74049272
C        1.62424068      -1.45149831      -0.58049272
C        2.62524068      -1.12949831       0.32650728
C        1.71124068      -1.01249831      -1.89749272
C        2.79624068      -0.25149831      -2.31749272
C        3.71124068      -0.36849831      -0.08349272
C        3.79524068       0.06950169      -1.40049272
H        0.77324068      -2.03549831      -0.25849272
H        2.56024068      -1.47049831       1.35150728
H        0.92424068      -1.26649831      -2.59249272
H        4.49424068      -0.12449831       0.61750728
H        3.14324068       1.29050169      -3.70949272
H        1.92024068       0.14050169      -4.23249272
H        4.64124068       0.66750169      -1.70949272
H        3.65683168      -0.29352831      -4.33106272
