21
Properties=species:S:1:pos:R:3 pbc="F F F"
C        1.64364907       1.07400411      -1.86515299
C        0.87864907       2.05000411      -2.74415299
H        2.58764907       1.50900411      -1.53915299
H        1.05764907       0.85700411      -0.97415299
H        1.83364907       0.14600411      -2.40615299
H        0.73864907       2.97800411      -2.18915299
H        1.43742907       2.25280411      -3.66969999
H       -0.11569093       1.64549011      -2.98426599
C       -2.10335093       0.53100411       1.04184701
C       -0.11635093      -0.91699589       0.91584701
N       -0.74935093       0.13000411       1.41884701
N        1.10464907      -1.19799589       1.32184701
N       -0.70035093      -1.67199589       0.00384701
H       -0.25635093       0.67200411       2.11484701
H        1.62264907      -0.51099589       1.87084701
H        1.53364907      -2.06299589       1.04884701
H       -1.64735093      -1.47799589      -0.27115299
H       -0.22135093      -2.46499589      -0.39215299
H       -2.82435093      -0.05299589       1.61984701
H       -2.29035093       0.36000411      -0.02015299
H       -2.26672093       1.59876011       1.24970901
