21
Properties=species:S:1:pos:R:3 pbc="F F F"
C       -0.98985602       0.92234921      -0.60626685
C       -1.16385602       2.16634921      -1.49826685
C        0.37114398       0.73534921       0.02073315
C        1.42914398      -0.07165079      -0.32326685
C        1.97014398       0.99334921       1.51973315
N        0.73314398       1.35534921       1.19573315
N        2.43214398       0.15434921       0.60073315
H       -1.73085602       0.94034921       0.19273315
H       -1.19085602       0.05534921      -1.23026685
H       -0.45785602       2.11634921      -2.32426685
H        1.47614398      -0.72265079      -1.18426685
H        2.51214398       1.34034921       2.38973315
H        3.36614398      -0.24565079       0.57973315
H       -1.00117602       3.07130921      -0.89445685
H       -2.18900602       2.21369921      -1.89426685
C       -2.61485602      -3.09565079      -0.11926685
O       -1.47785602      -2.30665079      -0.50326685
H       -0.71585602      -2.89265079      -0.53926685
H       -2.37785602      -3.65665079       0.78573315
H       -3.48368602      -2.44812079       0.07001315
H       -2.84156602      -3.80098079      -0.93235685
