17
Properties=species:S:1:pos:R:3 pbc="F F F"
C       -1.73190096      -0.85512086      -0.87135327
C       -0.91090096      -0.69412086      -2.13835327
C       -1.94690096       0.47287914      -0.13235327
O       -3.10790096       0.90187914      -0.05435327
O       -0.98390096       1.07987914       0.39964673
H       -2.69890096      -1.28812086      -1.12835327
H       -1.25490096      -1.57712086      -0.20935327
H        0.07409904      -0.32212086      -1.89435327
H       -1.37394096       0.04449214      -2.80920327
H       -0.78130096      -1.68600086      -2.59592327
C        2.42109904      -0.86012086       1.87964673
C        2.14709904      -0.19412086       0.61364673
O        1.05409904      -0.50612086       0.12364673
O        2.96609904       0.62987914       0.15364673
H        3.46509904      -0.79812086       2.11064673
H        2.23509904      -1.92912086       1.73364673
H        1.72748904      -0.47510786       2.64166673
