16
Properties=species:S:1:pos:R:3 pbc="F F F"
C       -0.68035454      -1.75913141      -0.74156035
C       -2.15335454      -1.88313141      -1.14556035
H       -0.20635454      -2.74113141      -0.75256035
H       -0.14435454      -1.11213141      -1.43356035
H       -0.60935454      -1.34113141       0.26243965
H       -2.61535454      -0.89813141      -1.06656035
H       -2.67117454      -2.58215141      -0.47232735
H       -2.21985454      -2.21562141      -2.19199535
C        0.83864546       1.44286859       0.61543965
C        1.99064546       2.19886859       1.27543965
H        0.19564546       2.13386859       0.09143965
H        1.23764546       0.72686859      -0.10356035
H        0.25664546       0.90986859       1.36743965
H        2.56564546       2.70086859       0.49843965
H        1.60174546       2.94352859       1.98553965
H        2.66176546       1.48155859       1.77047965
