19
Properties=species:S:1:pos:R:3 pbc="F F F"
C        0.95114922      -1.59300107      -1.28964247
C        1.57414922      -2.93100107      -0.92564247
H       -0.11785078      -1.70900107      -1.48064247
H        1.09714922      -0.89200107      -0.46764247
H        1.43114922      -1.18800107      -2.17864247
H        2.62614922      -2.77000107      -0.67964247
H        1.51450922      -3.61724707      -1.78324247
H        1.06384922      -3.35696907      -0.04924247
C       -0.68285078       0.93699893       0.81835753
C       -1.67085078       1.69099893       1.65935753
C       -0.21485078       1.94799893      -0.20364247
H       -1.18985078       0.11199893       0.31535753
H        0.14514922       0.55899893       1.41935753
H       -2.40585078       1.00499893       2.07835753
H       -1.15385078       2.24099893       2.44735753
H        0.17814922       1.46299893      -1.09864247
H        0.55514922       2.57899893       0.24335753
H       -2.12268078       2.39642093       0.94645753
H       -1.10577078       2.55825493      -0.41304247
