16
Properties=species:S:1:pos:R:3 pbc="F F F"
C        0.75298637      -1.58564921      -0.00973709
C        0.59898637      -2.99164921       0.57926291
H       -0.08701363      -0.96764921       0.30626291
H        1.68498637      -1.12464921       0.31726291
H        0.78098637      -1.61664921      -1.09873709
H        1.44998637      -3.58364921       0.24326291
H       -0.32520363      -3.46053321       0.21044291
H        0.60184637      -2.98091421       1.67920291
C       -0.10201363       1.87435079      -0.55873709
C       -1.25301363       2.70435079      -0.01073709
H        0.67998637       2.52935079      -0.94073709
H        0.31598637       1.26635079       0.24226291
H       -0.45101363       1.21635079      -1.35273709
H       -2.08501363       2.04135079       0.22226291
H       -1.56949363       3.45429079      -0.75062709
H       -0.95964363       3.20963079       0.92126291
