16
Properties=species:S:1:pos:R:3 pbc="F F F"
C        0.24624556      -0.76361705      -1.61656356
C        1.18224556      -0.48461705      -2.76156356
H        0.54824556      -0.18361705      -0.75556356
H       -0.75475444      -0.45461705      -1.89656356
H        0.24824556      -1.82661705      -1.37356356
H        1.10724556       0.57038295      -3.03256356
H        0.82124556      -1.07161705      -3.60556356
H        2.23070556      -0.73216105      -2.53920356
C       -0.62975444       0.74938295       1.44443644
C       -0.78375444       0.49038295       2.93643644
H       -0.80475444      -0.18361705       0.91443644
H       -1.38575444       1.46838295       1.12643644
H        0.36424556       1.14338295       1.22743644
H       -1.71075444      -0.06161705       3.10443644
H       -0.89975444       1.47238295       3.39043644
H        0.05731556      -0.03976405       3.40712144
