26
Properties=species:S:1:pos:R:3 pbc="F F F"
C        0.33068742      -0.82049851       0.52574420
C        1.47068742      -1.27849851       1.44174420
C        0.42968742       0.62750149       0.10574420
C        0.76068742       1.61950149       1.03874420
C        0.17168742       1.00250149      -1.21425580
C        0.83968742       2.96150149       0.65774420
C        0.24568742       2.34450149      -1.59825580
C        0.58068742       3.32450149      -0.66225580
H        0.29668742      -1.46349851      -0.35525580
H       -0.61331258      -0.93849851       1.05974420
H        1.59668742      -0.56649851       2.25474420
H        0.93168742       1.37450149       2.07574420
H       -0.09231258       0.24950149      -1.94125580
H        1.09168742       3.71850149       1.38874420
H        0.04068742       2.62750149      -2.62225580
H        0.63768742       4.36350149      -0.96025580
H        2.41479742      -1.36371051       0.88372420
H        1.22405742      -2.23688751       1.92202420
C       -1.55931258      -4.06149851       0.19774420
C       -2.80331258      -4.13549851      -0.68325580
H       -1.62831258      -3.21649851       0.88074420
H       -1.47931258      -4.97549851       0.78674420
H       -0.66931258      -3.95449851      -0.42225580
H       -3.67331258      -4.28749851      -0.05525580
H       -2.91212258      -3.20707351      -1.26307580
H       -2.72910258      -4.99795261      -1.36197580
