35
Properties=species:S:1:pos:R:3 pbc="F F F"
C        2.49236896       1.43975956      -2.39310054
C        1.53736896      -1.10924044       0.27489946
C        1.60636896      -0.41024044      -0.93610054
C        2.27436896      -0.67724044       1.37189946
C        2.43236896       0.70175956      -1.08010054
C        3.10036896       0.43775956       1.24689946
C        3.17736896       1.12575956       0.02389946
O        2.20636896      -1.36024044       2.54889946
H        0.89436896      -1.97124044       0.35689946
H        1.01236896      -0.74924044      -1.77410054
H        1.59836896      -2.11324044       2.45889946
H        3.67936896       0.76675956       2.09689946
H        2.72936896       2.48675956      -2.20510054
H        1.50136896       1.40475956      -2.85010054
H        3.82036896       1.99075956      -0.06010054
H        3.22829596       1.02571056      -3.09806454
C       -1.67863104      -0.61824044       2.27189946
C       -2.99863104      -0.51724044       3.02889946
C       -1.80963104      -0.26524044       0.81289946
C       -2.20063104      -1.22324044      -0.12210054
C       -1.54563104       1.02975956       0.37589946
C       -2.34063104      -0.89124044      -1.46610054
C       -1.67463104       1.36575956      -0.96610054
C       -2.07263104       0.40975956      -1.88610054
O       -2.18163104       0.76075956      -3.20010054
H       -0.93963104       0.03675956       2.73389946
H       -1.30463104      -1.63924044       2.34989946
H       -3.70163104      -1.19724044       2.54689946
H       -2.40963104      -2.23324044       0.20189946
H       -1.24563104       1.78275956       1.08989946
H       -2.65163104      -1.64024044      -2.18010054
H       -1.46563104       2.36675956      -1.30610054
H       -2.46663104       0.01975956      -3.74310054
H       -3.37731904       0.51527156       3.00622346
H       -2.86330704      -0.85079644       4.06833546
