16
Properties=species:S:1:pos:R:3 pbc="F F F"
C        0.04744234      -1.93623168      -0.63026252
C       -1.39855766      -1.98523168      -1.23226252
H        0.56344234      -1.04523168      -0.98226252
H       -0.00855766      -1.91823168       0.45873748
H        0.61244234      -2.80923168      -0.95326252
H       -1.88355766      -2.88723168      -0.86526252
H       -1.30726766      -2.04129968      -2.32703252
H       -1.99082766      -1.10796068      -0.93290252
C        0.07044234       1.61176832       0.58873748
C        1.27344234       2.31876832       1.27673748
H       -0.70655766       2.33776832       0.34773748
H        0.40444234       1.13276832      -0.32926252
H       -0.34155766       0.85476832       1.25773748
H        2.02044234       1.55276832       1.49573748
H        0.99110234       2.79814432       2.22567748
H        1.73261234       3.02485532       0.56920748
