30
Properties=species:S:1:pos:R:3 pbc="F F F"
C       -0.37870988       0.96374841       2.88044724
C        0.73129012       0.60274841       0.54044724
C        0.69029012       1.13574841       1.86744724
C        1.95429012       1.02374841      -0.04655276
C        1.84629012       1.83874841       2.03644724
C       -0.14870988      -0.19925159      -0.16755276
C        0.20529012      -0.55225159      -1.46155276
C        1.40429012      -0.11925159      -2.03355276
C        2.29929012       0.67274841      -1.34055276
N        2.60529012       1.77574841       0.89344724
H       -1.06670988      -0.51125159       0.28744724
H       -0.45670988      -1.17525159      -2.05055276
H        1.63829012      -0.41325159      -3.04955276
H        0.09329012       0.97874841       3.85644724
H       -0.81770988      -0.02425159       2.75244724
H        2.13329012       2.35674841       2.94644724
H        3.51829012       2.20474841       0.78844724
H        3.22929012       1.00074841      -1.78455276
H       -1.18574988       1.71119841       2.87900724
C       -3.38370988      -1.59025159      -1.02955276
C       -3.64370988      -2.39025159      -2.29955276
C       -2.97770988      -2.47525159       0.15944724
H       -2.60770988      -0.85725159      -1.22655276
H       -4.29370988      -1.05125159      -0.76955276
H       -2.76470988      -3.00825159      -2.49655276
H       -3.66570988      -3.30925159       0.27744724
H       -1.98670988      -2.88825159      -0.03155276
H       -3.80272988      -1.70216159      -3.14290276
H       -4.49868988      -3.05820159      -2.11830276
H       -2.96823988      -1.95267159       1.12734724
