29
Properties=species:S:1:pos:R:3 pbc="F F F"
C        2.41676376       1.74772608       0.49653049
C        0.57476376       2.41272608      -1.07246951
N        1.79376376       1.94872608      -0.81746951
N       -0.14323624       2.82172608      -0.05146951
N        0.06776376       2.52572608      -2.29046951
H        2.45076376       2.45172608      -1.39646951
H        0.24176376       2.78672608       0.88053049
H       -1.05123624       3.24672608      -0.18646951
H        0.04076376       3.49972608      -2.60746951
H       -0.90123624       2.21472608      -2.36446951
H        1.75776376       1.15272608       1.13453049
H        2.59276376       2.71172608       0.98353049
H        3.37881376       1.22087608       0.41353049
C       -2.25823624      -0.65927392       2.73353049
C       -1.41623624      -0.42427392       0.39253049
C       -1.43323624      -1.17227392       1.57753049
C       -0.66123624      -0.83127392      -0.69846951
C        0.10676376      -1.98127392      -0.55946951
C       -0.65423624      -2.32027392       1.70753049
C        0.12776376      -2.73327392       0.62553049
O        0.90176376      -2.42427392      -1.55646951
H       -2.02323624       0.47072608       0.31953049
H       -0.68723624      -0.26627392      -1.61246951
H       -2.59423624      -1.48527392       3.36253049
H       -3.14023624      -0.16827392       2.32353049
H       -0.65723624      -2.88727392       2.62753049
H        1.37076376      -3.21927392      -1.28546951
H        0.73676376      -3.62327392       0.71453049
H       -1.60949624       0.02049608       3.30541049
