19
Properties=species:S:1:pos:R:3 pbc="F F F"
C        1.21905746       0.84028613       0.35337716
C        1.17705746       1.82228613      -0.82062284
C        2.61905746       0.52928613       0.86737716
H        0.58005746       1.18428613       1.16837716
H        0.79505746      -0.10271387       0.00637716
H        1.69205746       2.74328613      -0.54462284
H        2.55305746      -0.36871387       1.48137716
H        3.29005746       0.28828613       0.04337716
H        0.11826746       2.03768613      -1.02692074
H        1.68333746       1.37982613      -1.69120084
H        3.03234746       1.34428613       1.47971516
C       -1.83494254      -1.17471387      -0.06062284
C       -3.09494254      -1.94571387      -0.32362284
H       -1.97994254      -0.42871387       0.71737716
H       -1.05494254      -1.86371387       0.26237716
H       -1.50694254      -0.68271387      -0.97462284
H       -2.88694254      -2.73371387      -1.04262284
H       -3.88446254      -1.27599387      -0.69528844
H       -3.44726254      -2.37252387       0.62701016
