20
Properties=species:S:1:pos:R:3 pbc="F F F"
C        0.30884687       0.12172054       2.35222325
C        1.43784687      -1.52927946       0.83122325
N        0.71484687      -0.43427946       1.04722325
N        1.90984687      -2.26327946       1.82822325
N        1.68984687      -1.89027946      -0.41477675
H        0.43284687       0.10272054       0.23222325
H        0.94484687       0.97472054       2.59722325
H        0.42684687      -0.62227946       3.14122325
H        1.77084687      -1.96227946       2.77722325
H        2.46484687      -3.08327946       1.63922325
H        1.32984687      -1.34127946      -1.17977675
H        2.24084687      -2.71227946      -0.60677675
H       -0.73972313       0.45344054       2.33043325
C       -2.67315313       2.35272054      -1.22177675
C       -1.46915313       1.45872054      -1.44477675
O       -0.42715313       1.78372054      -0.81877675
O       -1.55115313       0.45172054      -2.19377675
H       -2.44815313       3.33772054      -1.63977675
H       -2.82515313       2.48572054      -0.14877675
H       -3.60697313       1.99406054      -1.67930675
