26
Properties=species:S:1:pos:R:3 pbc="F F F"
C        1.38060380      -1.39123537      -0.32068523
C        2.09060380      -2.00123537      -1.52968523
C        0.42560380      -0.27223537      -0.64468523
C       -0.78939620      -0.53123537      -1.29468523
C        0.72060380       1.03376463      -0.24768523
C       -1.69939620       0.51176463      -1.54568523
C       -0.17439620       2.07576463      -0.50768523
C       -1.38639620       1.81276463      -1.14168523
H        0.81660380      -2.18223537       0.17831477
H        2.13460380      -1.03623537       0.38231477
H        1.32960380      -2.39223537      -2.20368523
H       -1.03539620      -1.53823537      -1.59768523
H        1.64460380       1.24876463       0.26531477
H       -2.63939620       0.30276463      -2.03868523
H        0.06460380       3.08576463      -0.20068523
H       -2.07439620       2.62376463      -1.31968523
H        2.73937080      -2.81862537      -1.18186523
H        2.70693980      -1.26350537      -2.06437523
C        0.12660380      -0.87623537       3.08331477
C       -0.96239620       0.15076463       3.35531477
H       -0.28039620      -1.87323537       3.23531477
H        0.44560380      -0.77823537       2.05431477
H        0.99860380      -0.72323537       3.71531477
H       -0.53839620       1.14276463       3.18931477
H       -1.32225620       0.08338463       4.39260477
H       -1.79735220       0.01004463       2.65314477
