30
Properties=species:S:1:pos:R:3 pbc="F F F"
C        2.43430449      -3.71444570       0.11367711
C        3.69730449      -3.14044570       0.61767711
C        2.86930449      -4.91644570      -0.69132289
H        1.88830449      -2.99444570      -0.49232289
H        1.82330449      -4.04344570       0.95567711
H        4.09730449      -2.45544570      -0.13032289
H        3.53430449      -2.61844570       1.55967711
H        2.17530449      -5.73644570      -0.49232289
H        4.40799449      -3.96982570       0.74824211
H        3.86861449      -5.15902570      -0.30075489
H        2.87437449      -4.70071570      -1.76994989
C       -0.42069551       4.26555430      -0.07832289
C       -1.74469551       0.71055430       0.18367711
C       -0.67869551       1.61955430      -0.07832289
C       -1.19069551       2.95855430       0.09667711
C       -2.50169551       2.81155430       0.45167711
C       -0.33969551      -1.15344570      -0.27432289
C       -1.58869551      -0.66944570       0.08867711
C        0.73330449      -0.27744570      -0.53532289
C        0.57430449       1.10155430      -0.43832289
N       -2.83669551       1.47155430       0.50767711
H       -0.20269551      -2.22044570      -0.38032289
H       -2.41769551      -1.33744570       0.27767711
H        1.69430449      -0.67944570      -0.82732289
H        1.39730449       1.76755430      -0.65632289
H       -3.75969551       1.12255430       0.74567711
H       -3.18469551       3.62855430       0.64967711
H       -1.08869551       4.99855430      -0.53132289
H        0.37130449       4.08155430      -0.78932289
H       -0.02907351       4.68597130       0.85969711
