20
Properties=species:S:1:pos:R:3 pbc="F F F"
C        1.75470249      -0.50696723      -1.41320123
C        0.47270249      -1.29396723      -1.23020123
O        0.24370249      -1.92796723      -0.20520123
N       -0.39029751      -1.23496723      -2.24520123
H        1.49370249       0.54503277      -1.52120123
H        2.22270249      -0.83696723      -2.33920123
H       -1.29229751      -1.69296723      -2.15720123
H       -0.21529751      -0.63196723      -3.03220123
H        2.47904249      -0.61117323      -0.59194123
C       -0.46129751       1.27503277       1.36579877
C        0.21570249       1.75003277       2.70679877
C       -1.78229751       1.92603277       1.09079877
H        0.22170249       1.45103277       0.53379877
H       -0.61629751       0.19603277       1.43179877
H        0.20570249       2.84003277       2.74979877
H        1.25670249       1.42703277       2.67179877
H       -2.36729751       1.27003277       0.43679877
H       -2.33329751       2.03903277       2.03079877
H       -0.23551751       1.33134177       3.61843877
H       -1.64141751       2.89881677       0.59698877
