24
Properties=species:S:1:pos:R:3 pbc="F F F"
C        0.02814804       2.41832109      -1.26384803
C        0.14814804       0.11332109      -0.25884803
C        0.15814804       1.49532109      -0.08384803
C        0.30514804      -0.74367891       0.83315197
C        0.32514804       2.01332109       1.20415197
C        0.47814804      -0.21667891       2.11315197
C        0.48614804       1.16532109       2.30215197
O        0.65014804      -1.05067891       3.17815197
H        0.02214804      -0.29367891      -1.24584803
H        0.26614804      -1.81267891       0.71015197
H       -0.66085196       3.21032109      -0.98784803
H       -0.38785196       1.88232109      -2.11784803
H        0.33314804       3.08632109       1.35315197
H        0.61914804       1.57932109       3.29115197
H        0.76514804      -0.56467891       4.00115197
H        0.98478804       2.88689109      -1.53820803
C       -1.16985196      -1.77267891      -3.16084803
C       -1.20085196      -2.76367891      -4.32884803
H       -1.92685196      -2.01267891      -2.41584803
H       -0.19085196      -1.86367891      -2.68884803
H       -1.29885196      -0.74767891      -3.49184803
H       -0.32485196      -2.60267891      -4.94884803
H       -2.11272196      -2.64603891      -4.93271803
H       -1.14409196      -3.78755891      -3.93078803
