24
Properties=species:S:1:pos:R:3 pbc="F F F"
C       -2.19136255      -0.04068094      -2.44785968
C       -0.35136255      -1.11468094       0.74414032
C       -1.36736255      -0.80968094      -0.15985968
C        0.97763745      -0.94268094       0.36614032
C       -1.07836255      -0.36168094      -1.45985968
C        1.27963745      -0.48868094      -0.91585968
C        0.26963745      -0.19768094      -1.81085968
O        1.99063745      -1.21268094       1.22514032
H       -0.58836255      -1.45668094       1.74114032
H       -2.39636255      -0.90768094       0.15614032
H        1.68363745      -1.34468094       2.14114032
H        2.31363745      -0.36668094      -1.20585968
H       -1.75136255       0.22631906      -3.40985968
H       -2.71536255       0.84031906      -2.07185968
H        0.52863745       0.14531906      -2.80385968
H       -2.91781255      -0.85277094      -2.59881068
C       -0.27836255       2.08531906       2.47814032
C        0.52163745       2.61831906       1.30014032
H        0.01463745       2.59831906       3.39514032
H       -1.34536255       2.23831906       2.30314032
H       -0.09236255       1.01731906       2.59814032
H        0.24863745       2.03731906       0.41514032
H        1.59614745       2.49354906       1.49976832
H        0.25830745       3.66801906       1.10318632
