16
Properties=species:S:1:pos:R:3 pbc="F F F"
C        1.96289403      -0.86757958      -0.10722542
C        0.92289403      -1.12757958      -1.16422542
O       -0.22010597      -0.72157958      -0.95622542
O        1.23789403      -1.72957958      -2.19622542
H        1.51689403      -0.89957958       0.88977458
H        2.34489403       0.14642042      -0.25022542
H        2.81654203      -1.55893958      -0.16471742
C       -1.16010597       1.77342042       0.99377458
C       -0.81910597       2.09842042       2.44677458
O       -1.77010597       0.49842042       0.89077458
H       -1.83110597       2.53642042       0.59577458
H       -0.24210597       1.77542042       0.40777458
H       -0.37210597       3.08842042       2.45377458
H       -1.26110597       0.01142042       0.20377458
H       -0.10284397       1.37078842       2.85606458
H       -1.73072097       2.16161642       3.05911458
