23
Properties=species:S:1:pos:R:3 pbc="F F F"
C        0.62534246       0.65211511      -3.46033631
C        0.54134246      -0.45288489       0.17066369
C       -0.67065754      -1.12088489       0.24466369
C        0.95934246       0.11911511      -1.01533631
C        0.16034246       0.02811511      -2.15533631
C       -1.47665754      -1.25288489      -0.87533631
C       -1.04165754      -0.70388489      -2.08833631
H        1.16034246      -0.36888489       1.05366369
H       -0.98865754      -1.54488489       1.18766369
H        1.90234246       0.64711511      -1.04933631
H       -2.42165754      -1.77388489      -0.81033631
H        1.37834246       1.41011511      -3.24333631
H       -0.22165754       1.15711511      -3.91833631
H       -1.66065754      -0.79888489      -2.96833631
H        1.04132046      -0.08246889      -4.16556531
C       -0.03865754       0.63211511       3.71266369
C        0.74534246       1.64511511       4.55266369
H       -0.41765754       1.10611511       2.80666369
H        0.61134246      -0.18988489       3.42466369
H       -0.86965754       0.22011511       4.28366369
H        0.97134246       1.18311511       5.51466369
H        0.15520546       2.55746611       4.72399369
H        1.69420046       1.88702341       4.05151669
