22
Properties=species:S:1:pos:R:3 pbc="F F F"
C       -0.85519273       0.19189739      -1.76527139
C       -1.92719273      -0.87810261      -2.11327139
N       -1.51719273       1.48489739      -1.43327139
H       -0.23019273      -0.16010261      -0.93927139
H       -0.20819273       0.32289739      -2.63927139
H       -1.43219273      -1.74210261      -2.55727139
H       -2.60419273      -0.47310261      -2.86827139
H       -2.03019273       1.42689739      -0.55327139
H       -0.81019273       2.21289739      -1.32827139
H       -2.15919273       1.77889739      -2.16427139
H       -2.51873273      -1.20452261      -1.24520739
C        1.10080727      -0.46610261       1.47772861
C        1.10080727      -0.99310261       2.93472861
C        2.31980727       0.45289739       1.08572861
H        1.07980727      -1.30510261       0.78372861
H        0.18480727       0.10889739       1.33072861
H        0.23580727      -1.64710261       3.05172861
H        3.24980727      -0.11410261       1.08872861
H        2.16280727       0.84189739       0.07972861
H        2.40080727       1.29389739       1.77372861
H        2.01040727      -1.59075261       3.09424461
H        1.02969727      -0.21584261       3.70985161
