23
Properties=species:S:1:pos:R:3 pbc="F F F"
C        3.55646949       0.95143390       0.97273491
C        3.04646949       2.32543390       0.48073491
H        4.53546949       1.06343390       1.44173491
H        2.88946949       0.49443390       1.69373491
H        3.64346949       0.24843390       0.14473491
H        2.10746949       2.18343390      -0.05826509
H        3.80073949       2.75992590      -0.19179609
H        2.87286949       2.99617190       1.33511891
C       -3.02853051       0.55243390       0.78473491
C        0.53546949      -0.70456610       0.19373491
C        0.40146949      -1.36156610      -1.01426509
C       -0.58153051      -0.07356610       0.77773491
C       -1.82553051      -0.10356610       0.14973491
C       -0.84253051      -1.40656610      -1.63826509
C       -1.95553051      -0.76856610      -1.04826509
H        1.48146949      -0.72456610       0.70373491
H        1.25146949      -1.86356610      -1.45826509
H       -0.46853051       0.43143390       1.72573491
H       -0.95753051      -1.96656610      -2.54826509
H       -3.55353051       1.13043390       0.02373491
H       -2.68553051       1.25343390       1.54573491
H       -2.92253051      -0.82056610      -1.52626509
H       -3.72798051      -0.16640810       1.23643491
