28
Properties=species:S:1:pos:R:3 pbc="F F F"
C       -0.45597944       1.71680601       2.85523742
C       -2.19797944       2.00080601      -0.30876258
C       -1.46697944       1.82580601       1.75523742
C       -2.81097944       1.98880601       1.80423742
N       -1.09897944       1.87980601       0.42723742
N       -3.24597944       2.08080601       0.49923742
H       -2.22497944       2.07080601      -1.38776258
H       -4.20697944       2.13380601       0.18723742
H       -3.41897944       2.02080601       2.69923742
H        0.19502056       0.86980601       2.63723742
H       -0.96197944       1.52280601       3.80123742
H        0.15207056       2.63069601       2.92642742
C        1.52602056      -4.17919399      -1.96576258
C        0.30802056      -0.69119399      -1.10776258
C        0.34302056      -2.00019399      -1.58876258
C        1.39802056      -0.17519399      -0.40376258
C        1.46102056      -2.79819399      -1.38176258
C        2.51902056      -0.94819399      -0.22376258
C        2.55002056      -2.26019399      -0.69276258
O        1.39802056       1.10180601       0.07223742
H       -0.56597944      -0.08219399      -1.28076258
H       -0.49997944      -2.39019399      -2.14076258
H        0.49002056       1.45980601       0.06523742
H        3.36902056      -0.53719399       0.30023742
H        0.58802056      -4.69619399      -1.76076258
H        2.32802056      -4.73719399      -1.48276258
H        3.43802056      -2.85919399      -0.53776258
H        1.69496056      -4.15414399      -3.05242358
