21
Properties=species:S:1:pos:R:3 pbc="F F F"
C       -0.52564962      -0.27267616      -2.66136029
C        0.54135038       0.73432384      -0.65336029
N        0.54635038      -0.11967616      -1.66736029
N       -0.48264962       1.54032384      -0.43836029
N        1.58835038       0.78732384       0.14663971
H        1.36935038      -0.69667616      -1.77236029
H       -1.22864962       1.63432384      -1.13236029
H       -0.47164962       2.18332384       0.33463971
H        2.38535038       0.18332384      -0.02736029
H        1.62135038       1.43532384       0.91563971
H       -0.16764962       0.12432384      -3.61236029
H       -1.41464962       0.28832384      -2.39036029
H       -0.82169562      -1.31966616      -2.82310029
C       -0.21064962      -1.02567616       2.25163971
C       -1.42764962      -1.66267616       2.91863971
H       -0.01664962      -1.49367616       1.28663971
H       -0.37364962       0.04232384       2.12263971
H        0.66635038      -1.15067616       2.88863971
H       -1.68764962      -1.03567616       3.77363971
H       -1.18885162      -2.66321616       3.30836971
H       -2.29357862      -1.68059616       2.24051971
