17
Properties=species:S:1:pos:R:3 pbc="F F F"
C       -1.06421067      -0.87231151      -0.24082109
C       -2.48021067      -0.67731151      -0.78482109
O       -0.84021067      -2.23631151       0.05317891
H       -0.32721067      -0.51831151      -0.96382109
H       -0.95021067      -0.30331151       0.67817891
H       -3.17921067      -1.14531151      -0.09282109
H       -0.53821067      -2.67131151      -0.75882109
H       -2.57676067      -1.13970151      -1.77824109
H       -2.72614067       0.39393849      -0.82894109
C        1.60878933       1.54668849       0.34217891
C        2.80578933       2.43268849       0.67517891
H        0.78478933       2.15768849      -0.03082109
H        1.89278933       0.83268849      -0.43082109
H        1.27978933       0.99568849       1.21517891
H        3.60978933       1.81568849       1.07517891
H        2.52296933       3.20239849       1.40836891
H        3.17494933       2.92248849      -0.23796109
