23
Properties=species:S:1:pos:R:3 pbc="F F F"
C       -3.10294987       1.58952015       1.47872709
C       -3.12194987       2.75952015       2.46672709
H       -4.07194987       1.47752015       0.99272709
H       -2.36394987       1.79052015       0.70472709
H       -2.84494987       0.66852015       2.00072709
H       -3.41894987       3.65852015       1.92572709
H       -3.84140987       2.56427825       3.27558609
H       -2.11553987       2.91683815       2.88193309
C        2.92405013       0.82752015      -0.56827291
C       -0.59494987      -0.58847985      -0.19827291
C       -0.43494987      -1.87247985      -0.71827291
C        0.49705013       0.28452015      -0.13927291
C        1.75205013      -0.11847985      -0.60027291
C        0.81805013      -2.28347985      -1.17827291
C        1.90405013      -1.40847985      -1.11527291
H       -1.56394987      -0.28047985       0.16272709
H       -1.27894987      -2.54847985      -0.76427291
H        0.37105013       1.26852015       0.28472709
H        0.95105013      -3.27647985      -1.57827291
H        3.80305013       0.24852015      -0.28827291
H        2.76805013       1.57352015       0.20672709
H        2.86705013      -1.74347985      -1.45827291
H        3.10799013       1.33765525      -1.52531491
