21
Properties=species:S:1:pos:R:3 pbc="F F F"
C       -1.25721312       1.29723895      -1.75778570
C       -2.23921312       2.06423895      -2.65678570
S        0.46578688       1.19723895      -2.31178570
H       -1.28721312       1.70723895      -0.74578570
H       -1.62821312       0.27123895      -1.68178570
H       -3.24421312       1.76423895      -2.35278570
H        0.80078688       0.13523895      -1.55678570
H       -2.12623312       1.75390895      -3.70603570
H       -2.19089312       3.14107895      -2.43752570
C        2.63878688      -0.80176105       1.57321430
C       -0.92921312      -1.20776105       1.05121430
C        1.15678688      -0.99276105       1.70821430
C        0.37978688      -1.10176105       2.81621430
N        0.31678688      -1.06176105       0.61321430
N       -0.91721312      -1.23476105       2.37721430
H       -1.81121312      -1.30476105       0.43021430
H       -1.74021312      -1.37476105       2.96621430
H        0.71178688      -1.08576105       3.84221430
H        3.04278688      -1.65476105       1.02721430
H        3.08578688      -0.79676105       2.56621430
H        2.89809688       0.12527895       1.04090430
