17
Properties=species:S:1:pos:R:3 pbc="F F F"
C        0.42133824       0.04831842       0.23540289
C        2.10233824       0.85131842       2.32240289
S        0.36433824       0.48031842       1.97840289
H       -0.57566176      -0.23868158      -0.10059711
H        1.10833824      -0.78068158       0.07240289
H        0.76433824       0.90431842      -0.34359711
H        2.14833824       1.43931842       3.24040289
H        2.49633824       1.45931842       1.50740289
H        2.72363824      -0.04707758       2.45229289
C       -1.12166176      -1.34368158      -3.02259711
C       -2.25266176      -0.57668158      -3.69559711
H       -1.45566176      -1.77668158      -2.08159711
H       -0.27266176      -0.68468158      -2.83659711
H       -0.80866176      -2.16168158      -3.67059711
H       -3.07866176      -1.26568158      -3.87659711
H       -2.59774476       0.23975142      -3.04417211
H       -1.90388476      -0.20169158      -4.66911511
