20
Properties=species:S:1:pos:R:3 pbc="F F F"
C       -2.32686150       1.84003442      -3.04204693
C       -1.13886150       0.46703442      -1.33304693
N       -1.19286150      -0.19896558      -0.21304693
N       -2.24086150       1.03303442      -1.82004693
N        0.00713850       0.56703442      -1.97104693
H       -2.06086150      -0.63096558       0.01595307
H       -0.32886150      -0.60896558       0.16495307
H       -3.08586150       0.92203442      -1.26904693
H        0.11313850       1.12503442      -2.78904693
H        0.85513850       0.14803442      -1.55904693
H       -1.38286150       1.83703442      -3.58704693
H       -2.53186150       2.88103442      -2.77604693
H       -3.10223150       1.46171442      -3.72445693
C        1.98213850       0.49603442       2.19495307
C        1.71813850      -0.99696558       2.09095307
O        0.60813850      -1.36996558       1.62295307
O        2.55813850      -1.82596558       2.50795307
H        1.48513850       0.88803442       3.08595307
H        1.54913850       0.98203442       1.31795307
H        3.05513850       0.73002442       2.25764307
