27
Properties=species:S:1:pos:R:3 pbc="F F F"
C        2.12090421      -2.46737817      -0.76852744
C        0.38790421       0.91362183       1.23447256
C        0.07490421      -0.37737817       1.66447256
C        1.24990421       1.10162183       0.16047256
C        0.63490421      -1.47537817       1.01147256
C        1.80090421       0.00362183      -0.48252744
C        1.50290421      -1.29037817      -0.06752744
O       -0.13909579       2.00362183       1.85947256
H       -0.59309579      -0.53137817       2.50147256
H       -0.67809579       1.77562183       2.62647256
H        1.49790421       2.09762183      -0.16852744
H        0.39190421      -2.47737817       1.34047256
H        2.49590421       0.15162183      -1.29152744
H        2.53490421      -2.15637817      -1.72852744
H        1.33290421      -3.19137817      -0.96752744
H        2.90353421      -2.96200817      -0.17453444
C       -1.90109579       0.77662183      -1.70752744
C       -1.84009579      -0.74437817      -1.83852744
C       -3.10709579       1.24162183      -0.88752744
H       -0.98009579       1.15162183      -1.27052744
H       -1.99509579       1.21562183      -2.70152744
H       -2.84809579      -1.16337817      -1.82452744
H       -1.31309579      -1.11937817      -0.96252744
H       -3.09809579       2.33362183      -0.86352744
H       -4.02409579       0.92062183      -1.38852744
H       -1.33241579      -1.08976817      -2.75119788
H       -3.09772579       0.86109183       0.14451456
