16
Properties=species:S:1:pos:R:3 pbc="F F F"
C       -2.03067489       0.26026341       1.01058177
C       -1.40767489      -1.07773659       1.37458177
H       -3.09967489       0.14426341       0.81958177
H       -1.88467489       0.96126341       1.83258177
H       -1.55067489       0.66526341       0.12158177
H       -0.35567489      -0.91673659       1.62058177
H       -1.46731489      -1.76398259       0.51698177
H       -1.91797489      -1.50370459       2.25098177
C        1.33632511       0.04326341      -0.64241823
C        2.09332511       0.77226341      -1.74741823
H        0.37832511      -0.30773659      -1.02041823
H        1.92132511      -0.81273659      -0.30441823
H        1.17532511       0.71226341       0.20458177
H        3.09032511       0.98726341      -1.36541823
H        1.60774511       1.72931341      -1.98881823
H        2.20660511       0.12845841      -2.63211823
