18
Properties=species:S:1:pos:R:3 pbc="F F F"
C        1.09302755      -1.39993844      -0.73765294
C        1.13702755      -0.98693844      -2.18265294
C        2.53202755      -1.72893844      -0.37165294
H        0.46302755      -2.28693844      -0.65665294
H        0.69602755      -0.60593844      -0.10965294
H        0.20302755      -1.22693844      -2.69665294
H        1.31102755       0.08906156      -2.25265294
H        3.02102755      -0.87193844       0.09334706
H        1.98741855      -1.52035844      -2.63242834
H        3.00227255      -1.97683144      -1.33467894
H        2.53783955      -2.60146044       0.29817706
C       -1.02997245       0.64506156       2.21034706
C       -1.19697245       1.04606156       0.74834706
O       -0.49797245       1.97806156       0.28534706
O       -2.04697245       0.43306156       0.06334706
H       -0.78297245      -0.41493844       2.27834706
H       -1.98397245       0.79106156       2.72134706
H       -0.26917345       1.24765956       2.72809306
