22
Properties=species:S:1:pos:R:3 pbc="F F F"
C        0.45087562      -0.03808362      -1.20267903
C       -0.04012438       1.25591638      -1.84867903
C       -0.31712438      -1.27308362      -1.67867903
C        1.95187562      -0.17508362      -1.49267903
H        0.31787562       0.04191638      -0.12867903
H        0.50387562       1.31991638      -2.78367903
H        0.30687562       2.09691638      -1.24867903
H       -0.29312438      -1.32808362      -2.76667903
H        0.14987562      -2.16808362      -1.26667903
H       -1.34612438      -1.24208362      -1.32167903
H        2.48687562       0.68291638      -1.08267903
H        2.33487562      -1.07908362      -1.01567903
H        2.13887562      -0.23208362      -2.56367903
H       -1.10077438       1.39513638      -2.10487203
C       -0.50412438       0.34191638       2.49832097
C       -1.50112438      -0.11808362       3.56332097
H        0.27887562       0.95291638       2.94632097
H       -0.03612438      -0.53608362       2.05332097
H       -1.01812438       0.91091638       1.72632097
H       -0.92512438      -0.63008362       4.32432097
H       -2.05213438       0.72463638       4.00628797
H       -2.22612438      -0.83221362       3.14571897
