19
Properties=species:S:1:pos:R:3 pbc="F F F"
C       -0.61990701       1.11349808       0.67046446
C        0.24709299       1.44649808      -0.51553554
C       -1.15290701       2.44349808       1.12946446
H       -0.00190701       0.69749808       1.45946446
H       -1.42490701       0.42749808       0.40446446
H        1.06609299       0.73149808      -0.60353554
H       -0.36290701       1.46449808      -1.41853554
H       -1.41590701       2.41949808       2.18246446
H       -2.00990701       2.72349808       0.52946446
H        0.60956299       2.46036808      -0.29039554
H       -0.34164701       3.15778808       0.92538446
C        0.04709299      -2.47850192      -0.31053554
C        1.43109299      -2.46950192      -0.93353554
H       -0.08890701      -3.35350192       0.32346446
H       -0.06890701      -1.59450192       0.31146446
H       -0.71290701      -2.46650192      -1.09053554
H        2.16209299      -2.48750192      -0.12453554
H        1.54709299      -1.53150192      -1.46853554
H        1.60947299      -3.30984092      -1.62056554
