19
Properties=species:S:1:pos:R:3 pbc="F F F"
C        1.02327991      -1.23370429       0.22885051
C        1.45527991      -0.30970429       1.37185051
C       -0.12672009      -2.18270429       0.57985051
H        0.68727991      -0.59570429      -0.58714949
H        1.87627991      -1.79870429      -0.15114949
H        0.57127991       0.14929571       1.82085051
H       -0.87172009      -1.63470429       1.15385051
H        2.11101991       0.48353071       0.98354051
H        1.98042991      -0.88325629       2.14983051
H       -0.61046009      -2.52998399      -0.34502949
H        0.24094991      -3.03507227       1.17001051
C       -0.57172009       1.70729571      -1.57714949
C       -1.71272009       1.92829571      -0.58314949
H       -0.59572009       2.47629571      -2.35014949
H        0.36427991       1.78729571      -1.03114949
H       -0.62372009       0.71929571      -2.03514949
H       -1.73672009       1.08929571       0.11285051
H       -2.67353009       1.99814671      -1.11415949
H       -1.52276009       2.85289371      -0.01831949
