20
Properties=species:S:1:pos:R:3 pbc="F F F"
C        1.85462650       0.06937634       2.50046566
C        2.21562650      -0.92762366       1.39846566
O        1.62062650      -0.83762366       0.29946566
O        3.09262650      -1.79262366       1.61546566
H        0.78562650       0.29637634       2.47246566
H        2.39562650       1.00037634       2.31446566
H        2.12065650      -0.28604366       3.50689666
C       -2.68637350       2.37337634      -0.62553434
C       -1.53237350       0.27637634      -1.29153434
N       -0.86737350       0.22737634      -0.15153434
N       -2.38937350       1.26037634      -1.53853434
N       -1.33837350      -0.66462366      -2.19253434
H       -0.96937350       0.96737634       0.51446566
H       -0.05337350      -0.38562366      -0.06853434
H       -2.78537350       1.30837634      -2.47953434
H       -1.80737350      -0.60062366      -3.08353434
H       -0.65037350      -1.38162366      -2.02853434
H       -3.13537350       3.18437634      -1.19353434
H       -1.75537350       2.78137634      -0.22653434
H       -3.33172350       2.07794634       0.21485166
