18
Properties=species:S:1:pos:R:3 pbc="F F F"
C       -1.68131288      -1.16215696      -1.42044127
C       -2.69731288      -0.19815696      -0.83844127
O       -0.65031288      -0.42615696      -2.06444127
H       -1.27131288      -1.79015696      -0.63044127
H       -2.17031288      -1.80915696      -2.14644127
H       -2.16331288       0.48784304      -0.18244127
H       -0.03431288      -1.06515696      -2.44944127
H       -3.46939988      -0.74457996      -0.27692127
H       -3.11368588       0.39686904      -1.66462127
C        0.74568712       0.87684304       2.43355873
C        1.34968712       0.46684304       1.10455873
O        2.40168712       0.95684304       0.70355873
N        0.65068712      -0.37915696       0.37655873
H        0.96668712      -0.56015696      -0.56044127
H       -0.19731288      -0.77715696       0.74455873
H        1.52768712       1.30684304       3.06055873
H        0.35568712      -0.01015696       2.93555873
H       -0.06362288       1.60873804       2.29448873
