20
Properties=species:S:1:pos:R:3 pbc="F F F"
C       -0.33539860      -0.32861914      -2.47755497
C       -0.91139860      -1.03461914      -3.67755497
C        0.84660140       0.49538086      -3.00555497
H        0.01660140      -1.07961914      -1.76655497
H       -1.08139860       0.30738086      -2.00055497
H       -1.37039860      -1.98561914      -3.40355497
H       -1.64839860      -0.38861914      -4.15555497
H        0.54160140       1.53138086      -3.16055497
H       -0.06165660      -1.17892914      -4.36101097
H        1.07613070       0.03858686      -3.97954497
H        1.70837790       0.43634526      -2.32448497
C       -0.61339860       0.99538086       1.10444503
C       -0.19739860      -1.05761914       2.96544503
S        0.59660140       0.44738086       2.32744503
H       -0.24239860       1.88638086       0.59544503
H       -0.78139860       0.20038086       0.37744503
H       -1.55539860       1.23138086       1.60244503
H       -0.00839860      -1.86561914       2.25744503
H       -1.27539860      -0.89761914       2.99144503
H        0.13669340      -1.38229014       3.96192503
