30
Properties=species:S:1:pos:R:3 pbc="F F F"
C        2.99925201      -2.41820311       3.35407254
C       -0.40374799      -1.93120311       0.74507254
C        0.85925201      -2.09020311       0.21507254
C       -0.57074799      -1.90520311       2.11507254
C        1.95125201      -2.25120311       1.06707254
C        0.53125201      -2.07420311       2.97407254
C        1.79925201      -2.25120311       2.45207254
H       -1.25374799      -1.80520311       0.08807254
H        0.99725201      -2.09220311      -0.85692746
H       -1.55974799      -1.76620311       2.53207254
H        2.93225201      -2.39120311       0.63707254
H        0.38025201      -2.06020311       4.04507254
H        3.45725201      -3.38020311       3.12207254
H        2.68625201      -2.43920311       4.39907254
H        3.74441201      -1.62145311       3.21292254
C       -2.78674799       2.79379689      -3.45992746
C       -1.04274799       1.30479689      -0.43192746
C        0.27525201       1.62479689      -0.69092746
C       -2.06274799       1.67879689      -1.32892746
C       -1.74374799       2.40379689      -2.46292746
C        0.58425201       2.34679689      -1.82192746
C       -0.41974799       2.72379689      -2.70592746
H       -1.29274799       0.74679689       0.46007254
H        1.05225201       1.31079689      -0.00792746
H       -3.08774799       1.39979689      -1.12692746
H        1.61025201       2.61279689      -2.03692746
H       -2.66474799       3.85479689      -3.66992746
H       -3.78274799       2.64979689      -3.03992746
H       -0.15774799       3.28179689      -3.59392746
H       -2.69784799       2.23363689      -4.40243746
