15
Properties=species:S:1:pos:R:3 pbc="F F F"
C       -1.64183819      -0.85696519      -1.36745764
C       -2.51983819       0.03503481      -2.24045764
H       -2.11683819      -1.82496519      -1.20645764
H       -0.67883819      -1.01196519      -1.85345764
H       -1.47883819      -0.37496519      -0.40545764
H       -1.95283819       0.94003481      -2.45945764
H       -3.43411619       0.33188781      -1.70568764
H       -2.74122919      -0.46492819      -3.19493764
C        1.57616181       1.55103481       0.77854236
C        1.02016181       0.13503481       0.92954236
O        0.13016181      -0.09996519       1.78054236
O        1.49616181      -0.75596519       0.18954236
H        1.41916181       1.90603481      -0.24245764
H        2.65616181       1.50803481       0.94254236
H        1.16656181       2.27937681       1.49390236
