23
Properties=species:S:1:pos:R:3 pbc="F F F"
C        1.60894088      -2.30947947      -1.15138413
C        0.92794088       1.07452053       0.42361587
C        0.20494088       0.69052053       1.53961587
C        1.36394088       0.09152053      -0.44638413
C        1.13294088      -1.26147947      -0.17638413
C       -0.02605912      -0.62347947       1.85361587
C        0.43394088      -1.61047947       0.97861587
H        1.10494088       2.11952053       0.20961587
H       -0.17905912       1.45552053       2.19961587
H        1.89894088       0.38152053      -1.34138413
H       -0.57305912      -0.89047947       2.74661587
H        2.18294088      -3.05847947      -0.60238413
H        2.26894088      -1.85747947      -1.89238413
H        0.24494088      -2.65247947       1.20361587
H        0.76501388      -2.80153147      -1.65702513
C       -1.98805912       2.35152053      -1.37038413
C       -3.04405912       1.29552053      -1.10138413
H       -2.45705912       3.32752053      -1.48738413
H       -1.29105912       2.39252053      -0.53638413
H       -1.43905912       2.10152053      -2.27738413
H       -2.53805912       0.33552053      -1.06138413
H       -3.77494612       1.29264853      -1.92345213
H       -3.53521712       1.44453153      -0.12847113
