23
Properties=species:S:1:pos:R:3 pbc="F F F"
C        0.18612572      -2.52458965       2.98295122
C        0.86512572      -2.91658965       4.29795122
H        0.66412572      -3.01758965       2.14295122
H       -0.87187428      -2.78158965       2.99695122
H        0.27012572      -1.44458965       2.86395122
H        0.24912572      -2.57858965       5.13195122
H        1.85841572      -2.44664765       4.34830222
H        1.01544572      -4.00478765       4.35477022
C        0.22512572       2.49441035      -3.00704878
C       -0.47287428      -0.36058965       0.16795122
C        0.82512572       0.05841035      -0.13704878
C       -1.55987428       0.17541035      -0.53704878
C        1.06412572       0.99641035      -1.14104878
C       -1.31687428       1.11941035      -1.55904878
C       -0.01787428       1.53141035      -1.86904878
H       -0.65387428      -1.10458965       0.92295122
H        1.65912572      -0.35358965       0.41695122
H       -2.56887428      -0.14558965      -0.31604878
H        2.07812572       1.29841035      -1.36404878
H       -2.15487428       1.51041035      -2.12004878
H        0.99812572       3.17541035      -2.70604878
H       -0.68187428       3.07141035      -3.19404878
H        0.54415572       1.98598035      -3.92884978
