28
Properties=species:S:1:pos:R:3 pbc="F F F"
C       -0.77125388      -3.43354626      -0.05861961
C       -0.66525388      -2.73654626      -1.38061961
C       -0.60825388      -1.03654626      -2.77561961
C       -0.41725388      -3.22554626      -2.62561961
N       -0.76825388      -1.36854626      -1.50061961
N       -0.36925388      -2.13954626      -3.47561961
H       -0.65625388      -0.03154626      -3.18061961
H       -1.03525388      -4.47854626      -0.21561961
H       -1.58725388      -2.96154626       0.48338039
H       -0.20825388      -2.16554626      -4.47661961
H       -0.26425388      -4.26554626      -2.88361961
H        0.13375612      -3.33658126       0.55908039
C        2.40974612       3.80645374       2.33238039
C       -0.46825388       0.82545374       1.11838039
C        0.86374612       0.71645374       0.70338039
C       -0.86925388       1.89345374       1.90338039
C        1.80274612       1.67245374       1.10938039
C        0.07874612       2.85445374       2.30138039
C        1.41974612       2.72945374       1.93838039
O       -1.41125388      -0.07754626       0.70738039
H       -1.10025388      -0.58654626      -0.07061961
H        1.16774612      -0.10154626       0.06638039
H       -1.90225388       1.98345374       2.20338039
H        2.83074612       1.58145374       0.78738039
H       -0.23625388       3.69345374       2.90038039
H        3.30374612       3.32645374       2.72838039
H        1.98874612       4.42645374       3.12438039
H        2.70289612       4.44579374       1.48662039
