23
Properties=species:S:1:pos:R:3 pbc="F F F"
C        3.88390262       2.41479219       0.15968525
C        0.30890262       0.18079219       1.01768525
C        0.25690262       1.27079219       0.16268525
C        1.51390262      -0.19420781       1.59768525
C        1.41190262       1.98779219      -0.09731475
C        2.66790262       0.52979219       1.32468525
C        2.62990262       1.63179219       0.47068525
O       -0.81809738      -0.52820781       1.27868525
H       -1.50909738      -0.37720781       0.59768525
H       -0.68909738       1.59579219      -0.23231475
H        1.53190262      -1.05420781       2.23168525
H        1.32790262       2.88179219      -0.61931475
H        3.59990262       0.23179219       1.78368525
H        4.50790262       2.48579219       1.05168525
H        3.59090262       3.42879219      -0.11731475
H        4.46621362       1.97914219      -0.66561475
C       -2.81409738      -1.74020781      -2.78231475
C       -2.63809738      -1.63520781      -1.27331475
O       -2.45909738      -0.50020781      -0.77631475
O       -2.66809738      -2.68020781      -0.59431475
H       -2.08909738      -2.44720781      -3.18231475
H       -2.58909738      -0.78020781      -3.24031475
H       -3.82907738      -2.05954781      -3.06129475
