18
Properties=species:S:1:pos:R:3 pbc="F F F"
C        0.04784060       2.31150279       2.46619825
C        1.38784060      -0.16049721       0.16219825
C       -0.60015940       0.73750279       0.47319825
C        0.25084060       1.26850279       1.39519825
N        0.14084060      -0.12949721      -0.29080175
N        1.49184060       0.69550279       1.18019825
H       -0.12015940      -0.32549721      -1.24180175
H        2.22184060      -0.67749721      -0.29880175
H       -1.63515940       0.98450279       0.31619825
H        0.62584060       3.18850279       2.17119825
H        0.46884060       1.93750279       3.39619825
H       -0.99292940       2.62135279       2.64170825
C       -1.64315940      -2.56649721      -2.26580175
O       -0.68215940      -1.53349721      -2.37180175
H       -0.17115940      -1.71149721      -1.56580175
H       -1.78815940      -2.82049721      -1.21680175
H       -2.60137940      -2.24005721      -2.69620175
H       -1.23317940      -3.43427721      -2.80327175
