23
Properties=species:S:1:pos:R:3 pbc="F F F"
C        2.19638276      -1.17367809       0.60719517
C        0.74838276      -1.13267809       0.18019517
C       -0.28061724      -1.20467809       1.11919517
C        0.39338276      -1.05167809      -1.15280483
C       -1.63461724      -1.14767809       0.71719517
C       -0.93761724      -1.00167809      -1.53180483
C       -1.95761724      -1.06567809      -0.59180483
H        2.35438276      -0.41567809       1.37419517
H        2.80938276      -0.90967809      -0.24980483
H       -0.04361724      -1.30367809       2.16819517
H        1.16038276      -1.01067809      -1.91380483
H       -2.41861724      -1.19667809       1.46219517
H       -1.19461724      -0.93367809      -2.57780483
H       -2.99261724      -1.04067809      -0.90380483
H        2.53574276      -2.14784809       0.98906517
C        0.62738276       2.72332191      -0.06780483
C        0.40138276       4.08832191       0.57019517
H       -0.15661724       2.02932191       0.23319517
H        0.58438276       2.81532191      -1.15380483
H        1.59538276       2.31832191       0.21619517
H       -0.62661724       4.40132191       0.38519517
H        0.60572276       4.07764191       1.65099517
H        1.07258276       4.82843191       0.11004517
