21
Properties=species:S:1:pos:R:3 pbc="F F F"
C        2.32041698      -0.70608909       0.14088739
C        2.91241698      -2.01008909      -0.38511261
H        2.21541698      -0.74308909       1.22588739
H        2.99241698       0.10891091      -0.11711261
H        1.36541698      -0.51708909      -0.33311261
H        3.98041698      -2.00408909      -0.22511261
H        2.74641698      -2.07508909      -1.45911261
H        2.50865298      -2.90341809       0.11382439
C       -0.98958302       1.56991091       1.72088739
C       -1.10758302       0.30491091      -0.36111261
N       -1.27758302       0.37091091       0.95488739
N       -0.59058302       1.31291091      -1.03511261
N       -1.36658302      -0.81508909      -0.97811261
H       -1.66658302      -0.42808909       1.43988739
H       -0.38658302       2.19191091      -0.57811261
H       -0.42058302       1.23291091      -2.03211261
H       -1.76858302      -1.59008909      -0.46311261
H       -1.16358302      -0.93008909      -1.95911261
H       -1.64358302       1.56391091       2.59488739
H       -1.23058302       2.46691091       1.14788739
H        0.05727898       1.58005091       2.05848739
