27
Properties=species:S:1:pos:R:3 pbc="F F F"
C       -0.09681439      -0.20299251       2.68097139
C        1.13318561       0.10800749       0.49397139
C        0.16918561       0.55100749       1.39997139
C        1.36218561       0.80100749      -0.69802861
C       -0.55781439       1.70200749       1.10497139
C        0.62918561       1.94900749      -0.97902861
C       -0.33181439       2.40400749      -0.07702861
O        0.84418561       2.64100749      -2.13302861
H        1.70318561      -0.78599251       0.70697139
H        2.10418561       0.45400749      -1.40102861
H        0.12518561      -1.25899251       2.52997139
H       -1.15981439      -0.11899251       2.91397139
H       -1.31181439       2.05600749       1.79497139
H       -0.90881439       3.28900749      -0.29002861
H        0.25818561       3.41600749      -2.16302861
H        0.49113961       0.17070149       3.53224139
C       -1.12581439      -2.60399251      -0.62202861
C       -2.05381439      -3.56299251       0.14497139
C        0.27718561      -3.15699251      -0.94002861
H       -1.59581439      -2.30399251      -1.55702861
H       -1.00681439      -1.69999251      -0.02602861
H       -2.98881439      -3.03899251       0.34397139
H        0.20818561      -4.02699251      -1.59102861
H        0.84618561      -2.38599251      -1.45802861
H        0.81318561      -3.41499251      -0.02702861
H       -2.27838139      -4.45555751      -0.45743861
H       -1.60656439      -3.83992981       1.11103139
