20
Properties=species:S:1:pos:R:3 pbc="F F F"
C       -0.55198722       2.50741516      -0.97553178
C       -0.43398722       2.02141516      -2.40753178
H       -1.09298722       3.45341516      -0.93353178
H       -1.09798722       1.76841516      -0.39053178
H        0.42801278       2.62841516      -0.51353178
H        0.10601278       1.08441516      -2.41153178
H        0.12957278       2.75970516      -2.99687178
H       -1.43888722       1.84753516      -2.81978178
C        0.64301278      -1.03758484      -0.28953178
C       -0.60598722      -1.43758484      -1.04553178
C        0.35301278      -0.78058484       1.17046822
O       -0.76598722      -0.44258484       1.56046822
N        1.36701278      -0.94858484       1.99546822
H        1.37301278      -1.84458484      -0.34753178
H        1.08801278      -0.14358484      -0.72453178
H       -1.33298722      -0.62658484      -0.99353178
H       -1.04098722      -2.32058484      -0.57753178
H        1.23301278      -0.78858484       2.98146822
H        2.29501278      -1.13458484       1.60646822
H       -0.38584722      -1.64685484      -2.10276178
