16
Properties=species:S:1:pos:R:3 pbc="F F F"
C       -0.48353051       2.55758215       0.48457329
C        0.93746949       2.09658215       0.18157329
O        1.15046949       0.87358215       0.03257329
O        1.84546949       2.95458215       0.09557329
H       -0.50753051       3.03858215       1.46557329
H       -1.16253051       1.70258215       0.53057329
H       -0.85923051       3.27148315      -0.26321971
C       -1.56553051      -2.89341785      -1.20142671
C       -0.78353051      -2.10641785      -0.17542671
O        0.42446949      -2.27841785      -0.02842671
N       -1.47153051      -1.25341785       0.56457329
H       -2.45053051      -2.32941785      -1.50242671
H       -1.89853051      -3.81541785      -0.72342671
H       -0.95353051      -0.66241785       1.19657329
H       -2.46153051      -1.13341785       0.42857329
H       -0.96559051      -3.13339485      -2.09164071
