36
Properties=species:S:1:pos:R:3 pbc="F F F"
C       -0.26885347       0.87850560       2.10530881
C        0.06314653       1.92650560       3.17630881
C       -1.73285347       0.49950560       1.97930881
C       -2.53385347       0.24250560       3.10830881
C       -2.31185347       0.34450560       0.69530881
C       -3.93385347      -0.09749440       2.96830881
C       -3.67485347      -0.03149440       0.55030881
C       -4.50185347      -0.21949440       1.70230881
H        0.07614653       1.22550560       1.13230881
H        0.29714653       0.00150560       2.34930881
H       -0.11185347       1.49350560       4.16330881
H       -2.11185347       0.32250560       4.10030881
H       -1.71185347       0.50250560      -0.19169119
H       -4.54085347      -0.26849440       3.84830881
H       -4.09885347      -0.14749440      -0.43969119
H       -5.54585347      -0.48249440       1.59130881
H       -0.54170347       2.83860610       3.06572881
H        1.13688653       2.15044060       3.09304881
C        1.91314653      -0.15349440      -0.77469119
C        2.97214653      -0.36649440       0.30030881
C        4.05714653      -0.44449440      -1.85069119
C        2.69114653      -0.87949440      -4.40669119
C        1.91314653      -0.61649440      -3.16369119
O        0.67314653      -0.56849440      -3.23769119
N        2.59714653      -0.45149440      -2.02269119
H        1.06814653      -0.82449440      -0.60769119
H        1.58114653       0.88450560      -0.77769119
H        3.05714653      -1.42749440       0.54330881
H        2.77414653       0.22550560       1.19330881
H        4.51714653       0.23550560      -2.56669119
H        3.73214653      -1.10949440      -4.20269119
H        3.87173653      -0.02460740      -0.23246619
H        4.18593653      -0.04077140      -0.83559419
H        4.51160653      -1.44185040      -1.94419319
H        2.19127653      -1.73275040      -4.88844119
H        2.61465653       0.01731760      -5.03904919
