19
Properties=species:S:1:pos:R:3 pbc="F F F"
C       -0.21205152      -1.91850765      -0.77241080
C       -0.70205152      -3.06150765      -1.63841080
H       -0.92205152      -1.71850765       0.03058920
H        0.74294848      -2.18850765      -0.32141080
H       -0.08005152      -1.02150765      -1.37741080
H       -0.92105152      -3.91350765      -1.00341080
H        0.11794848      -3.34550765      -2.29741080
H       -1.58776152      -2.81255865      -2.24135560
C       -0.03805152       1.60449235       0.28358920
C        1.15194848       0.80949235       0.78258920
C       -0.21705152       2.67149235       1.35758920
H       -0.92705152       0.98449235       0.17658920
H        0.21294848       2.08049235      -0.66641080
H        0.83794848       0.05449235       1.50358920
H        1.66094848       0.34949235      -0.06341080
H       -0.76005152       2.24049235       2.20058920
H       -0.75105152       3.54049235       0.97158920
H        1.76873048       1.56895235       1.28537620
H        0.81323348       2.92454235       1.64823820
