27
Properties=species:S:1:pos:R:3 pbc="F F F"
C        0.12121510      -3.69584476      -0.42304563
C       -0.17278490      -5.15384476      -0.08904563
H        1.19221510      -3.51284476      -0.46104563
H       -0.30378490      -3.46184476      -1.39904563
H       -0.33378490      -3.04284476       0.32195437
H        0.31721510      -5.78984476      -0.82904563
H       -1.24778490      -5.29584476      -0.20304563
H        0.13309910      -5.46402676       0.92101437
C       -0.43978490      -0.27184476      -2.03504563
C       -1.00478490       0.61215524      -3.16104563
C       -0.13878490       0.46315524      -0.73704563
C       -1.14178490       0.68615524       0.21095437
C        1.15421510       0.91715524      -0.45904563
C       -0.86178490       1.35315524       1.40995437
C        1.44021510       1.58715524       0.73595437
C        0.43021510       1.80415524       1.67195437
O        0.70421510       2.45915524       2.83895437
H       -1.15778490      -1.06584476      -1.82404563
H        0.47521510      -0.75184476      -2.38304563
H       -1.96078490       1.01915524      -2.82904563
H       -2.14578490       0.33315524       0.01995437
H        1.94121510       0.76315524      -1.18304563
H       -1.63378490       1.50015524       2.14595437
H        2.44021510       1.94115524       0.93895437
H       -0.07578490       2.55515524       3.39695437
H       -1.16822890       0.01761024      -4.07198563
H       -0.33455990       1.46177724      -3.35838563
