22
Properties=species:S:1:pos:R:3 pbc="F F F"
C        0.65611163       1.04819420       0.16723822
C        2.09211163       1.58519420       0.12823822
C       -0.07188837       1.58119420       1.40223822
C       -0.13988837       1.39819420      -1.09476178
H        0.69811163      -0.03380580       0.25423822
H        2.60311163       1.24919420       1.03023822
H        2.05611163       2.67619420       0.15123822
H       -0.16988837       2.66519420       1.33823822
H       -1.06488837       1.13519420       1.46223822
H        0.48311163       1.32519420       2.30423822
H        0.28311163       0.88719420      -1.95776178
H       -1.17288837       1.07019420      -0.97876178
H       -0.12188837       2.47519420      -1.25376178
H        2.68499963       1.27110060      -0.74344178
C       -1.06788837      -2.28680580       0.29323822
C       -1.37288837      -3.18680580      -0.88476178
H        0.00711163      -2.23080580       0.45923822
H       -1.45088837      -1.28680580       0.09223822
H       -1.55488837      -2.66680580       1.19223822
H       -2.45088837      -3.14880580      -1.04176178
H       -1.08225037      -4.21939180      -0.64125178
H       -0.88717037      -2.82648080      -1.80359178
