16
Properties=species:S:1:pos:R:3 pbc="F F F"
C        0.83133833       1.69708874       0.85015305
C        0.62233833       2.98908874       0.07415305
H       -0.11266167       1.37608874       1.28915305
H        1.19433833       0.92508874       0.17215305
H        1.56533833       1.85908874       1.64015305
H        1.57533833       3.28508874      -0.36084695
H        0.29408833       3.78980874       0.75319305
H       -0.08945167       2.83874874      -0.75092695
C       -0.65066167      -1.66191126      -0.11684695
C       -0.80966167      -3.02291126      -0.80184695
H       -1.44466167      -1.52491126       0.61615305
H        0.31733833      -1.61491126       0.38315305
H       -0.70666167      -0.86691126      -0.86284695
H       -0.01166167      -3.14091126      -1.53284695
H       -1.77900167      -3.08127126      -1.31854695
H       -0.72314167      -3.86114126      -0.09481695
