25
Properties=species:S:1:pos:R:3 pbc="F F F"
C       -0.82260085       2.85643302       1.81583574
C       -0.21660085       1.87143302       2.79283574
O        0.47739915       2.23543302       3.76383574
N       -0.48060085       0.61743302       2.55383574
H       -0.10760085      -0.06756698       3.19283574
H       -1.04760085       0.36343302       1.76783574
H       -1.18660085       3.72543302       2.36183574
H       -1.68160085       2.39443302       1.32783574
H       -0.08225385       3.15672902       1.05972574
C        2.12439915      -1.93756698      -3.46016426
C        0.53439915      -0.85156698      -0.15616426
C       -0.76760085      -0.58556698      -0.56316426
C        1.48239915      -1.28556698      -1.09016426
C        1.12739915      -1.47756698      -2.42616426
C       -1.14560085      -0.76856698      -1.89216426
C       -0.18760085      -1.21256698      -2.80716426
O       -1.72660085      -0.18756698       0.31983574
H        0.82939915      -0.73156698       0.87183574
H        2.50039915      -1.46656698      -0.77016426
H       -2.15860085      -0.57156698      -2.21516426
H       -2.56660085      -0.01856698      -0.12916426
H        3.12339915      -1.96056698      -3.02416426
H        2.12439915      -1.21256698      -4.27516426
H       -0.47760085      -1.35256698      -3.84016426
H        1.87295715      -2.93473898      -3.85058426
