18
Properties=species:S:1:pos:R:3 pbc="F F F"
C        0.10366388      -0.95300363      -0.46206559
C        0.43766388      -2.42700363      -0.66406559
C        1.29066388      -0.13100363      -0.01606559
O        2.35166388      -0.69800363       0.30593441
O        1.12366388       1.11999637      -0.00006559
H       -0.27833612      -0.55300363      -1.40406559
H       -0.67833612      -0.86400363       0.28793441
H        0.78766388      -2.85800363       0.27393441
H        1.23166388      -2.49500363      -1.40806559
H       -0.43491512      -2.99626463      -1.01697559
C       -2.99533612       0.85599637       0.38793441
C       -2.20633612       2.15599637       0.41593441
H       -4.02133612       1.04199637       0.06493441
H       -2.54333612       0.15799637      -0.31506559
H       -3.00233612       0.41599637       1.38593441
H       -1.23833612       1.96599637       0.88293441
H       -2.78533412       2.87091637       1.01896441
H       -2.04552912       2.56163637      -0.59381559
