18
Properties=species:S:1:pos:R:3 pbc="F F F"
C        1.24089613      -2.62052144      -0.12933127
C        0.10589613      -1.66352144       0.35866873
O        0.12889613      -1.30152144       1.60966873
O       -0.69410387      -1.30252144      -0.59433127
H        1.33689613      -2.55552144      -1.21633127
H        0.96089613      -3.64852144       0.10966873
H        2.23107613      -2.42414144       0.30767873
C        0.15089613       1.85647856      -0.16133127
C        0.31089613       3.35047856       0.00566873
N       -1.09010387       1.49547856      -0.94133127
H        1.03589613       1.46747856      -0.67933127
H        0.10789613       1.39047856       0.82866873
H       -0.49410387       3.73947856       0.63266873
H        0.23089613       3.82647856      -0.97433127
H       -1.03010387       1.79347856      -1.90933127
H       -1.16510387       0.47047856      -0.95433127
H       -1.92710387       1.85547856      -0.49433127
H        1.28124613       3.63819856       0.43653873
