23
Properties=species:S:1:pos:R:3 pbc="F F F"
C        2.60057276      -0.31369103       1.17464915
C        0.11157276      -0.92369103       0.91464915
C        1.41257276      -0.97869103       0.55064915
C        0.27257276      -2.21769103      -0.83335085
N       -0.58242724      -1.71569103       0.04464915
N        1.49557276      -1.78569103      -0.55535085
H       -0.28842724      -0.38269103       1.75164915
H       -1.58342724      -1.89169103       0.06564915
H        2.50157276       0.76930897       1.08064915
H        3.47557276      -0.61269103       0.59664915
H        0.01257276      -2.88369103      -1.64935085
H        2.74570776      -0.58743603       2.23011095
C       -1.58642724       1.90530897      -0.29535085
C       -2.55042724       2.86230897       0.47464915
C       -0.78542724       2.55030897      -1.44535085
H       -0.89442724       1.46030897       0.41464915
H       -2.19442724       1.09430897      -0.69635085
H       -3.03942724       2.27430897       1.25364915
H       -1.40942724       3.25030897      -1.99435085
H       -3.32611144       3.26258897      -0.19474585
H       -2.04358084       3.69758597       0.98003915
H        0.08886176       3.08192297      -1.04161185
H       -0.47833224       1.75543397      -2.14095585
