23
Properties=species:S:1:pos:R:3 pbc="F F F"
C        3.70179654      -0.80679317      -0.42318574
C        4.22679654      -1.90079317      -1.30718574
H        3.51279654       0.09820683      -1.00018574
H        2.77479654      -1.13779317       0.04081426
H        4.42079654      -0.59379317       0.36881426
H        3.48379654      -2.11279317      -2.07518574
H        4.31279654      -2.78979317      -0.68518574
H        5.18561654      -1.65626317      -1.78766574
C       -3.11820346       1.43320683       1.58681426
C        0.07579654      -0.30479317      -0.71318574
C       -0.73120346       0.65520683      -1.27918574
C       -0.12820346      -0.70379317       0.60381426
C       -1.77020346       1.21420683      -0.53218574
C       -1.15120346      -0.14079317       1.35481426
C       -1.98520346       0.82820683       0.79581426
H        0.86779654      -0.74879317      -1.29918574
H       -0.56620346       0.97220683      -2.29718574
H        0.50479654      -1.46279317       1.04281426
H       -2.40820346       1.96120683      -0.98518574
H       -1.31320346      -0.47679317       2.36481426
H       -3.43820346       0.72920683       2.35281426
H       -3.95420346       1.54120683       0.89581426
H       -2.89939346       2.41353683       2.03523426
