30
Properties=species:S:1:pos:R:3 pbc="F F F"
C        2.70561079       1.49137056       1.72433968
C        0.51361079      -0.11262944      -0.88966032
C        0.82161079       0.98837056      -0.04766032
C        1.98961079       0.63137056       0.72133968
C        2.32561079      -0.63062944       0.33033968
C       -0.56338921      -0.10162944      -1.76866032
C       -1.35338921       1.03437056      -1.81166032
C        0.00361079       2.12737056      -0.10866032
C       -1.07738921       2.13837056      -0.99266032
N        1.44961079      -1.07962944      -0.63266032
H        1.48361079      -2.00462944      -1.04866032
H       -0.77138921      -0.95362944      -2.40166032
H        3.15661079      -1.20162944       0.72833968
H       -2.19838921       1.07037056      -2.48466032
H        0.20461079       2.97137056       0.52933968
H        3.10661079       0.86037056       2.51633968
H        1.96761079       2.14237056       2.19633968
H       -1.71938921       3.00937056      -1.04366032
H        3.49485079       2.12233056       1.28960968
C       -2.21538921      -1.43562944       1.30033968
C       -1.09138921      -2.44062944       1.54133968
C       -3.06638921      -1.79562944       0.09133968
H       -2.86438921      -1.39462944       2.17533968
H       -1.78138921      -0.44662944       1.14533968
H       -0.46438921      -2.48862944       0.65133968
H       -1.52438921      -3.43162944       1.69533968
H       -2.43038921      -1.81462944      -0.79466032
H       -3.48038921      -2.79862944       0.20933968
H       -0.46564921      -2.17553944       2.40630968
H       -3.85022921      -1.03723944      -0.05165032
