20
Properties=species:S:1:pos:R:3 pbc="F F F"
C       -2.98422676       2.06302396       1.52791641
C       -1.98322676       0.46102396      -0.05208359
N       -1.01222676       0.13102396      -0.87508359
N       -1.98622676       1.64702396       0.53591641
N       -2.95122676      -0.41597604       0.14691641
H       -0.24922676       0.76302396      -1.05708359
H       -0.96122676      -0.79397604      -1.27108359
H       -1.28522676       2.32102396       0.26091641
H       -3.88722676      -0.05797604       0.20991641
H       -2.86022676      -1.33197604      -0.26908359
H       -3.62722676       2.84002396       1.11391641
H       -2.45022676       2.47102396       2.38791641
H       -3.59650676       1.21153396       1.85968641
C        3.77777324      -1.92597604      -0.38708359
C        2.69177324      -0.91597604      -0.31708359
O        1.50377324      -1.27897604      -0.31208359
O        3.00577324       0.27302396      -0.22608359
H        3.71377324      -2.46797604      -1.33408359
H        3.62377324      -2.64397604       0.41991641
H        4.78123324      -1.48333604      -0.30256359
