15
Properties=species:S:1:pos:R:3 pbc="F F F"
C       -0.21446568       2.25472877       0.17385753
C        0.77753432       1.18172877      -0.15714247
O        0.80753432       0.76172877      -1.33814247
O        1.39253432       0.68472877       0.79185753
H       -1.03546568       1.81572877       0.74885753
H       -0.65846568       2.59172877      -0.76414247
H        0.19603432       3.09152277       0.75803753
C       -1.08246568      -1.93027123       0.81385753
C       -1.61046568      -2.85627123      -0.29714247
H       -1.22046568      -0.88727123       0.53085753
H       -1.59046568      -2.12127123       1.75585753
H       -0.02346568      -2.10527123       0.99485753
H       -1.54346568      -3.88727123       0.02085753
H       -1.00610568      -2.76020423      -1.21121247
H       -2.65892568      -2.60872723      -0.51950247
