23
Properties=species:S:1:pos:R:3 pbc="F F F"
C       -0.26703942      -1.32843764      -2.70778523
C        1.14996058       0.11656236       0.51121477
C        1.34096058       1.45356236       0.16521477
C        0.61496058      -0.77443764      -0.43278523
C        0.27796058      -0.34643764      -1.73178523
C        0.99696058       1.89456236      -1.14578523
C        0.47096058       0.98956236      -2.08578523
H        1.39696058      -0.22943764       1.50621477
H        1.74296058       2.15156236       0.88621477
H        0.43996058      -1.80443764      -0.16378523
H        1.11296058       2.93256236      -1.42278523
H       -0.98503942      -0.83243764      -3.35378523
H       -0.81303942      -2.08743764      -2.15378523
H        0.18396058       1.33856236      -3.06678523
H        0.50399058      -1.81487764      -3.32332523
C       -1.32503942      -0.34543764       3.43721477
C       -2.58003942      -1.23043764       3.24121477
H       -1.24503942      -0.02043764       4.47321477
H       -0.43303942      -0.91243764       3.17021477
H       -1.38903942       0.53056236       2.79021477
H       -2.40703942      -2.18843764       3.72921477
H       -3.46544942      -0.75078264       3.68391777
H       -2.74153942      -1.42507964       2.17068477
