23
Properties=species:S:1:pos:R:3 pbc="F F F"
C        0.59177418       2.49827882      -2.29312161
C       -1.21922582       0.49427882       0.45187839
C       -0.16622582       0.23927882       1.33387839
C       -0.98222582       1.27527882      -0.69912161
C        0.32677418       1.70827882      -1.01012161
C        1.13077418       0.65327882       1.04887839
C        1.37577418       1.42327882      -0.11212161
H       -2.21422582       0.13727882       0.66587839
H       -0.35222582      -0.32872118       2.23387839
H       -1.79922582       1.49627882      -1.37112161
H        1.93877418       0.42227882       1.72987839
H       -0.08322582       2.11327882      -3.05112161
H        1.60577418       2.28027882      -2.63212161
H        2.37677418       1.75927882      -0.33512161
H        0.47631018       3.58908882      -2.21064761
C       -0.81722582      -3.17172118       0.21187839
C       -0.15822582      -4.21972118       1.14587839
H       -1.21222582      -2.34372118       0.80087839
H       -0.08022582      -2.79172118      -0.49712161
H       -1.63722582      -3.63372118      -0.34012161
H        0.15777418      -5.06872118       0.53587839
H       -0.88515982      -4.55558118       1.90004439
H        0.73163418      -3.80575118       1.64264439
