16
Properties=species:S:1:pos:R:3 pbc="F F F"
C        1.64285751       0.93453755       1.22059976
C        2.20085751       1.04653755      -0.18940024
O        3.20785751       1.70753755      -0.45440024
N        1.53385751       0.38653755      -1.11640024
H        1.86885751       0.46053755      -2.07040024
H        0.71385751      -0.16246245      -0.87040024
H        1.33485751      -0.09746245       1.39859976
H        0.73485751       1.52753755       1.27759976
H        2.35038751       1.24074985       2.00521976
C       -2.37314249       0.27953755       0.74259976
C       -2.13414249      -1.08446245       0.11359976
O       -0.99114249      -1.29346245      -0.35340024
O       -3.04714249      -1.94046245       0.08959976
H       -2.09214249       1.03753755       0.00959976
H       -1.72314249       0.39453755       1.61359976
H       -3.41431249       0.43999725       1.05915976
