16
Properties=species:S:1:pos:R:3 pbc="F F F"
C        0.23197773      -0.97228587      -1.57560760
C       -0.03602227      -1.05128587      -3.10260760
H        1.25897773      -0.65628587      -1.39860760
H       -0.44302227      -0.23928587      -1.13360760
H        0.06297773      -1.94528587      -1.11160760
H        0.09297773      -0.06228587      -3.53660760
H        0.68479773      -1.75420587      -3.54569180
H       -1.06655227      -1.38822587      -3.28831321
C       -0.36502227       1.09471413       1.62839240
C        0.16697773       0.92871413       3.05439240
H       -1.10102227       1.89871413       1.58639240
H        0.45197773       1.32471413       0.94539240
H       -0.83502227       0.16471413       1.30639240
H        0.92897773       0.14971413       3.05739240
H       -0.65175227       0.63001413       3.72556140
H        0.64157773       1.87941413       3.33885440
