19
Properties=species:S:1:pos:R:3 pbc="F F F"
C        0.22159153      -1.17780243      -1.25732805
C        0.70459153       0.20219757      -1.72032805
C        1.33859153      -2.16980243      -0.90332805
H       -0.42440847      -1.05380243      -0.38832805
H       -0.38640847      -1.62080243      -2.04832805
H        1.27459153       0.67519757      -0.91932805
H        1.94159153      -2.37580243      -1.78732805
H       -0.15030847       0.84941757      -1.96577805
H        1.36638153       0.09454757      -2.59235805
H        1.98624153      -1.75438243      -0.11720805
H        0.89172153      -3.11697243      -0.56690805
C       -0.95540847       0.81819757       1.69567195
C       -1.28940847       2.25119757       2.10567195
H       -0.69740847       0.21919757       2.57067195
H       -1.81140847       0.36819757       1.19267195
H       -0.10540847       0.82719757       1.01467195
H       -1.58040847       2.80619757       1.21567195
H       -0.39889847       2.72698757       2.54225195
H       -2.14367847       2.26055757       2.79859195
