17
Properties=species:S:1:pos:R:3 pbc="F F F"
C        2.51041303      -0.88518937      -2.15951772
C        1.72841303      -1.29318937      -0.87951772
O        0.48341303      -1.34918937      -0.86751772
O        2.37741303      -1.58918937       0.14748228
H        3.15841303      -1.71418937      -2.45051772
H        3.16641303      -0.04418937      -1.92251772
H        1.87091303      -0.61765937      -3.01360972
C       -1.72858697       0.01781063       0.90548228
C       -2.62558697      -0.15118937      -0.31251772
C       -1.10658697       1.39681063       1.02948228
O       -1.49758697       2.31881063       0.27748228
O       -0.21458697       1.54581063       1.91348228
H       -2.36358697      -0.13118937       1.78348228
H       -0.96558697      -0.75218937       0.96848228
H       -2.04758697       0.05881063      -1.21151772
H       -3.44358697       0.56681063      -0.24351772
H       -3.04664697      -1.16533937      -0.37729672
