26
Properties=species:S:1:pos:R:3 pbc="F F F"
C       -2.31262175      -1.06135743       1.60915500
C       -1.20162175       1.02464257      -1.13684500
C       -1.90962175      -0.49135743       0.28215500
C       -1.93762175      -1.04335743      -0.96684500
N       -1.43562175       0.79564257       0.14915500
N       -1.49262175      -0.07535743      -1.83384500
H       -0.83262175       1.98264257      -1.48484500
H       -1.40262175      -0.18735743      -2.83584500
H       -2.23162175      -2.02735743      -1.31084500
H       -1.40362175      -1.13935743       2.20915500
H       -2.71262175      -2.05635743       1.42915500
H       -3.06812175      -0.46565743       2.14245500
C        2.08337825       0.43364257       0.39815500
C        3.26137825       1.36064257       0.56315500
C        2.41537825      -0.48235743      -0.84484500
C        1.88737825      -0.41135743       1.67715500
H        1.18237825       1.01164257       0.20615500
H        3.49737825       1.77864257      -0.41184500
H        4.09537825       0.76564257       0.92615500
H        3.32537825      -1.05735743      -0.66284500
H        1.59837825      -1.14835743      -1.04384500
H        2.55337825       0.12264257      -1.74284500
H        1.70137825       0.23264257       2.53315500
H        1.03137825      -1.07135743       1.54815500
H        2.77837825      -1.00935743       1.86615500
H        3.33866825       2.25344257       1.20100500
