19
Properties=species:S:1:pos:R:3 pbc="F F F"
C       -0.23815471       2.11937186      -0.90145445
C        0.38484529       3.40037186      -1.42445445
H        0.26084529       1.82337186       0.02054555
H       -1.30515471       2.25537186      -0.73445445
H       -0.10415471       1.32737186      -1.64045445
H       -0.01215471       3.57937186      -2.42145445
H        1.47744529       3.28945186      -1.48711545
H        0.10404529       4.25000186      -0.78470045
C       -0.10115471      -1.30362814       0.80454555
C       -1.19215471      -2.24662814       0.31654555
C        1.14284529      -2.05762814       1.26054555
H        0.17584529      -0.62562814      -0.00445445
H       -0.47715471      -0.70962814       1.64154555
H       -1.47315471      -2.91362814       1.13254555
H       -0.84115471      -2.84062814      -0.52645445
H        1.91384529      -1.33062814       1.53454555
H        0.89084529      -2.63962814       2.15154555
H       -2.07706471      -1.68513814      -0.01762455
H        1.51208529      -2.72977814       0.47195155
