23
Properties=species:S:1:pos:R:3 pbc="F F F"
C        3.48047740       1.07998533       0.71206076
C       -0.10052260      -0.13501467       0.33906076
C       -0.45852260       0.40398533      -0.89793924
C        1.17447740       0.09298533       0.85906076
C        2.10547740       0.85498533       0.15306076
C        0.46647740       1.17298533      -1.61093924
C        1.74547740       1.39698533      -1.08293924
H       -0.77852260      -0.73601467       0.91606076
H       -1.44252260       0.22198533      -1.30793924
H        1.42947740      -0.30701467       1.82706076
H        0.19347740       1.59598533      -2.56793924
H        3.45747740       0.96898533       1.79806076
H        3.76447740       2.10698533       0.48906076
H        2.45747740       1.99198533      -1.63493924
H        4.25125740       0.42065333       0.28640684
C       -3.59752260      -1.63501467       0.10506076
C       -4.01152260      -2.67301467       1.13206076
H       -2.69652260      -1.12801467       0.41106076
H       -3.44652260      -2.10801467      -0.86593924
H       -4.39252260      -0.89401467       0.01206076
H       -4.98452260      -3.04601467       0.83906076
H       -4.08566260      -2.22602167       2.13440776
H       -3.31058260      -3.52075867       1.13637866
