30
Properties=species:S:1:pos:R:3 pbc="F F F"
C       -3.72707108      -1.82688295      -1.20136695
C       -0.57807108      -0.13288295       0.01063305
C       -1.91107108      -0.04388295      -0.45136695
C       -2.37207108      -1.37388295      -0.71236695
C       -1.31507108      -2.19588295      -0.43136695
C        0.17392892       0.97611705       0.36763305
C       -0.48107108       2.18211705       0.29263305
C       -1.81407108       2.32711705      -0.15836695
C       -2.54407108       1.20911705      -0.52936695
N       -0.22407108      -1.45488295       0.00363305
H        1.18392892       0.89411705       0.72463305
H        0.05392892       3.07511705       0.58863305
H        0.66192892      -1.83888295       0.33463305
H       -2.26907108       3.30911705      -0.19336695
H       -1.34107108      -3.27888295      -0.50836695
H       -3.57407108       1.29511705      -0.84536695
H       -4.50007108      -1.32388295      -0.61936695
H       -3.81407108      -2.89088295      -0.97536695
H       -3.92208508      -1.70284815      -2.27681695
C        3.87692892       0.30411705       0.69863305
C        4.55792892      -1.05988295       0.69563305
C        4.84992892       1.40111705       1.13163305
H        3.43292892       0.54011705      -0.26736695
H        3.09092892       0.27411705       1.45363305
H        5.06192892      -1.19188295       1.65763305
H        5.36892892       1.10911705       2.04563305
H        5.59592892       1.61211705       0.38363305
H        5.31136892      -1.13351595      -0.10243695
H        3.82455892      -1.87820865       0.64553305
H        4.24570892       2.29895905       1.32861305
