19
Properties=species:S:1:pos:R:3 pbc="F F F"
C       -0.13135326      -2.79092028      -0.49269986
S        1.21102674      -1.61785028      -0.19599986
C        1.73516674      -1.30234028      -1.88976986
H       -0.77862326      -2.80072028       0.35926014
H        0.42797674      -3.70247028      -0.52618986
H       -0.71621326      -2.69839028      -1.38391986
H        2.50757674      -0.52692028      -1.88507986
H        0.89851674      -0.95820028      -2.50002986
H        2.16383674      -2.20992028      -2.32296986
C       -1.37735326       0.60607972       0.43230014
C       -2.70735326       0.98107972       1.04130014
C       -0.35435326       1.76307972       0.47530014
O       -0.32835326       2.57607972       1.40830014
O        0.47764674       1.82707972      -0.42669986
H       -0.98235326      -0.19292028       1.04730014
H       -1.52335326       0.24007972      -0.58769986
H       -3.31835326       1.48807972       0.29330014
H       -2.54935326       1.67407972       1.86530014
H       -3.23275326       0.11047972       1.46090014
