16
Properties=species:S:1:pos:R:3 pbc="F F F"
C        1.41107633      -0.27866584      -1.50493102
C        0.69807633       0.35833416      -2.71593102
H        1.52007633       0.46233416      -0.71093102
H        0.82907633      -1.12266584      -1.13093102
H        2.39807633      -0.63266584      -1.80293102
H        0.58607633      -0.38866584      -3.50293102
H        1.30154333       1.20153416      -3.08323102
H       -0.29535167       0.67992416      -2.36998102
C       -0.68892367      -0.47866584       1.56806898
C       -1.42192367       0.39733416       2.64506898
H       -1.03892367      -0.21966584       0.57006898
H        0.38807633      -0.30166584       1.61406898
H       -0.88292367      -1.53766584       1.75006898
H       -1.21792367       1.45233416       2.46106898
H       -1.05192367       0.14433416       3.63106898
H       -2.51568567       0.28235416       2.66662898
