23
Properties=species:S:1:pos:R:3 pbc="F F F"
C        0.31840183       1.88888330      -2.13561883
C       -0.94759817       0.20788330       1.02438117
C        0.05340183       0.52988330       1.93138117
C       -0.86059817       0.64688330      -0.29261883
C        0.22440183       1.40788330      -0.71261883
C        1.13940183       1.29088330       1.52138117
C        1.22340183       1.72888330       0.20438117
H       -1.79859817      -0.37611670       1.34638117
H       -0.01159817       0.18888330       2.95638117
H       -1.64759817       0.39288330      -0.98761883
H        1.92240183       1.53488330       2.22238117
H        0.57140183       2.94988330      -2.10461883
H       -0.65159817       1.79988330      -2.62761883
H        2.06940183       2.32688330      -0.10461883
H        1.08499283       1.36585330      -2.72618883
C       -1.23959817      -3.19611670      -0.52361883
C        0.21140183      -3.64811670      -0.57361883
H       -1.89859817      -3.98911670      -0.17261883
H       -1.32859817      -2.36211670       0.16738117
H       -1.53359817      -2.86611670      -1.51661883
H        0.54740183      -3.97311670       0.39838117
H        0.80540183      -2.77011670      -0.81661883
H        0.40812783      -4.43358670      -1.31815883
