19
Properties=species:S:1:pos:R:3 pbc="F F F"
C       -0.73992168       1.13431110       0.21640066
C       -1.89592168       0.37331110      -0.41359934
C       -0.60092168       2.37331110      -0.66659934
H        0.16207832       0.52931110       0.15040066
H       -0.94792168       1.39731110       1.25440066
H       -1.85892168      -0.68768890      -0.16659934
H       -2.84092168       0.80731110      -0.08359934
H       -1.28692168       3.14731110      -0.31859934
H       -1.77228168       0.54132110      -1.49363934
H       -0.93396168       2.02218110      -1.65442234
H        0.43088832       2.75402110      -0.68750934
C        1.02207832      -2.24568890       0.09040066
C        2.17407832      -1.55868890       0.80040066
H        1.31807832      -3.24168890      -0.23059934
H        0.17607832      -2.33568890       0.77240066
H        0.70907832      -1.66668890      -0.77759934
H        1.81607832      -0.61368890       1.20440066
H        2.98380832      -1.37946790       0.07775866
H        2.52871832      -2.18606590       1.63144366
