27
Properties=species:S:1:pos:R:3 pbc="F F F"
C       -1.06983400      -3.93179167      -1.03651228
C       -1.18883400      -3.64379167      -2.54551228
H       -0.02983400      -3.83279167      -0.72351228
H       -1.68083400      -3.22079167      -0.47951228
H       -1.41483400      -4.94479167      -0.82551228
H       -2.23483400      -3.73979167      -2.84051228
H       -0.59152400      -4.38609167      -3.09525228
H       -0.88088400      -2.61109167      -2.76609228
C        2.98416600       2.09720833       0.12048772
C       -0.66483400       1.07220833       0.23348772
C        0.71216600       0.75720833       0.44848772
C        1.49016600       1.87320833      -0.04551228
C        0.59116600       2.77020833      -0.53251228
C       -1.36283400      -0.96579167       1.22348772
C       -1.69983400       0.22720833       0.61148772
C       -0.01283400      -1.31379167       1.45248772
C        1.03316600      -0.46679167       1.07448772
N       -0.69783400       2.30220833      -0.36951228
H       -2.15183400      -1.63779167       1.52548772
H       -2.72483400       0.51920833       0.42048772
H        0.23616600      -2.25279167       1.93148772
H        2.05916600      -0.75979167       1.28248772
H       -1.54283400       2.79420833      -0.64251228
H        0.94916600       3.70320833      -0.95751228
H        3.33016600       2.66820833      -0.73651228
H        3.46916600       1.11620833       0.11248772
H        3.23194600       2.76150833       0.96148772
