16
Properties=species:S:1:pos:R:3 pbc="F F F"
C       -1.32020488       0.21086862      -1.42869314
C       -1.32920488       1.30786862      -2.48569314
H       -0.65020488      -0.60113138      -1.70869314
H       -0.97020488       0.63586862      -0.48969314
H       -2.33120488      -0.17013138      -1.28969314
H       -0.30820488       1.65786862      -2.64769314
H       -1.90020488       2.13286862      -2.06069314
H       -1.76907988       0.99571862      -3.44437314
C        1.12379512      -0.50213138       1.26430686
C        1.51979512      -1.01913138       2.64630686
H        0.41479512       0.31986862       1.36930686
H        2.00879512      -0.14513138       0.73630686
H        0.66679512      -1.30513138       0.68430686
H        2.26279512      -1.80713138       2.50930686
H        0.64664212      -1.45948138       3.14998686
H        1.99862512      -0.22396138       3.23657686
