26
Properties=species:S:1:pos:R:3 pbc="F F F"
C       -1.38564443      -0.34092543       2.79503035
C       -1.62164443      -0.50192543       0.34603035
N       -1.06864443      -0.91892543       1.48103035
N       -2.44664443       0.52007457       0.32803035
N       -1.30864443      -1.11992543      -0.77096965
H       -0.45364443      -1.71992543       1.44803035
H       -2.70364443       0.98307457       1.18103035
H       -2.97364443       0.69807457      -0.53196965
H       -0.74964443      -1.95992543      -0.75696965
H       -1.88764443      -0.92192543      -1.56996965
H       -2.44664443      -0.49892543       3.00503035
H       -1.18664443       0.73407457       2.79803035
H       -0.81055443      -0.81045543       3.60670035
C        1.72135557      -0.63592543      -2.46996965
C        1.54735557       0.74307457      -0.42096965
N        1.95935557      -0.33992543      -1.04096965
N        0.75735557       1.60407457      -1.04696965
N        1.92635557       0.94107457       0.82003035
H        2.48635557      -1.02392543      -0.48696965
H        0.43935557       1.41207457      -1.98196965
H        0.43835557       2.43807457      -0.57496965
H        2.58235557       0.28307457       1.25803035
H        1.64335557       1.76807457       1.32003035
H        1.85835557       0.26007457      -3.07996965
H        0.71235557      -1.02492543      -2.61596965
H        2.44984557      -1.38896543      -2.80497965
