30
Properties=species:S:1:pos:R:3 pbc="F F F"
C        3.61409727      -0.40568466       0.95188688
C        0.22709727       0.80131534      -1.45011312
C        0.66609727      -0.50968466      -1.46311312
C        0.88909727       1.74931534      -0.66911312
C        1.77509727      -0.88768466      -0.71111312
C        1.99609727       1.34731534       0.10688688
C        2.44309727       0.02831534       0.09088688
O       -0.87790273       1.07831534      -2.19111312
H        0.15509727      -1.25268466      -2.05911312
H       -1.06590273       0.36331534      -2.80611312
H        0.54009727       2.77231534      -0.65111312
H        2.11009727      -1.91668466      -0.73711312
H        2.50109727       2.07631534       0.72788688
H        3.45909727      -1.44368466       1.22288688
H        3.59909727       0.18231534       1.86788688
H        4.59823827      -0.29024266       0.47424688
C       -2.31890273      -0.75368466       0.87788688
C       -3.74190273      -0.21368466       1.00988688
C       -1.34890273       0.11231534       1.64188688
C       -2.31090273      -2.11468466       1.54888688
H       -2.02790273      -0.84368466      -0.16811312
H       -3.91790273      -0.13468466       2.07788688
H       -4.46290273      -0.92568466       0.60988688
H       -1.66090273       0.21131534       2.68188688
H       -0.36090273      -0.34268466       1.60488688
H       -1.26690273       1.10231534       1.20088688
H       -2.98190273      -2.79668466       1.03388688
H       -1.30690273      -2.53168466       1.49888688
H       -2.60890273      -2.03268466       2.59288688
H       -3.88915973       0.77514134       0.55104288
