24
Properties=species:S:1:pos:R:3 pbc="F F F"
C       -3.38009617       1.25109280      -0.31370443
C       -4.47009617       1.99409280       0.39729557
H       -3.54209617       1.28509280      -1.39070443
H       -2.42009617       1.69709280      -0.07970443
H       -3.33309617       0.21309280       0.00329557
H       -4.76409617       2.85809280      -0.19970443
H       -4.06809617       2.37609280       1.33729557
H       -5.34397617       1.36855280       0.63187557
C        3.70890383       0.77409280      -0.60170443
C       -0.01609617      -0.04490720      -0.70170443
C       -0.14609617      -1.03290720       0.24729557
C        1.23290383       0.54609280      -0.94070443
C        2.37890383       0.13809280      -0.27470443
C        1.00390383      -1.44890720       0.95429557
C        2.26190383      -0.86990720       0.67429557
O       -1.40609617      -1.53390720       0.45129557
H       -0.88409617       0.27809280      -1.25670443
H        1.30590383       1.32809280      -1.68570443
H        0.92790383      -2.22190720       1.70329557
H       -1.47309617      -2.04890720       1.26229557
H        4.41690383       0.63109280       0.21629557
H        3.54690383       1.84809280      -0.71470443
H        3.13990383      -1.21090720       1.20729557
H        4.13617383       0.37272280      -1.53248443
