28
Properties=species:S:1:pos:R:3 pbc="F F F"
C        1.15871703       1.46205273       0.13048510
C        2.13971703       1.61805273      -1.05551490
C        0.99871703      -0.01294727       2.08248510
N        1.73871703       0.65905273       1.19848510
N       -0.32428297       0.02905273       2.03848510
N        1.58771703      -0.73694727       3.02048510
H        0.87471703       2.44605273       0.49948510
H        0.30571703       0.94605273      -0.27651490
H        3.00571703       2.16205273      -0.67651490
H        1.66671703       2.22905273      -1.82551490
H        2.75271703       0.62605273       1.28948510
H       -0.79128297       0.73205273       1.49548510
H       -0.86728297      -0.53794727       2.67548510
H        2.59371703      -0.82494727       3.02848510
H        1.04371703      -1.28394727       3.67148510
H        2.45985703       0.66190273      -1.49517490
C       -1.94528297       0.36605273      -1.29451490
C       -1.62728297       1.05905273      -2.61351490
C       -1.36228297      -1.03594727      -1.24651490
O       -0.40128297      -1.35494727      -1.94151490
N       -1.95228297      -1.89194727      -0.42751490
H       -1.68328297       0.97605273      -0.43651490
H       -3.02828297       0.23805273      -1.23351490
H       -1.40728297       0.28305273      -3.34651490
H       -0.68128297       1.57405273      -2.57851490
H       -1.59628297      -2.83694727      -0.38851490
H       -2.76528297      -1.63094727       0.11148510
H       -2.50363297       1.53060273      -3.08219490
