25
Properties=species:S:1:pos:R:3 pbc="F F F"
C        1.10444353      -3.14910104      -0.47399606
C        1.17144353      -4.58810104      -1.00999606
O        1.94444353      -2.98510104       0.65000394
H        1.40544353      -2.45510104      -1.26099606
H        0.07544353      -2.92510104      -0.18599606
H        2.18144353      -4.76610104      -1.38199606
H        1.64644353      -2.22010104       1.15900394
H        0.45518353      -4.69992204      -1.83732606
H        0.97507353      -5.31078404      -0.20428606
C       -1.83255647       2.10689896      -2.51199606
C        0.35544353       0.50789896       0.19900394
C       -0.22455647       0.80589896      -1.03599606
C       -0.04455647       1.22289896       1.33200394
C       -1.17455647       1.82789896      -1.17999606
C       -0.99655647       2.23389896       1.22000394
C       -1.53855647       2.53589896      -0.02099606
O        0.47844353       0.95489896       2.55500394
H        1.10744353      -0.26210104       0.27400394
H        0.07644353       0.23989896      -1.90899606
H        1.22744353       0.34689896       2.52600394
H       -1.28755647       2.78989896       2.09800394
H       -2.90755647       2.14389896      -2.33899606
H       -1.67255647       1.24889896      -3.15299606
H       -2.27855647       3.32189896      -0.09599606
H       -1.56831347       3.01762896      -3.06943606
