21
Properties=species:S:1:pos:R:3 pbc="F F F"
C       -0.01827320      -0.43517025       2.66431499
C       -0.04327320      -1.93417025       2.96631499
C        0.69872680       0.47182975       3.66831499
H        0.47072680      -0.30817025       1.69931499
H       -1.03527320      -0.07917025       2.54731499
H       -0.53727320      -2.07917025       3.92531499
H        1.72772680       0.13682975       3.78031499
H        0.98080980      -2.33476725       2.99417599
H       -0.65333120      -2.44424225       2.20627799
H        0.72041280       1.49973775       3.27724699
H        0.21423280       0.44073575       4.65538099
C       -0.47027320       0.81182975      -0.94768501
C       -1.56527320       1.71482975      -1.50868501
C        0.26272680       0.00882975      -2.01468501
O       -0.22427320      -0.08817025      -3.16468501
O        1.34172680      -0.53217025      -1.68668501
H        0.25472680       1.44882975      -0.43368501
H       -0.87827320       0.13382975      -0.20468501
H       -2.34027320       1.11282975      -1.98068501
H       -1.12027320       2.36482975      -2.26368501
H       -2.00828120       2.35201275      -0.72910701
