31
Properties=species:S:1:pos:R:3 pbc="F F F"
C        0.10133759       1.36105520       4.57304523
C        0.91233759       2.13705520       0.92504523
C        0.38033759       2.23505520       2.20504523
C        1.76433759       1.08805520       0.60304523
C        0.69933759       1.29505520       3.18504523
C        2.08333759       0.13505520       1.57304523
C        1.55233759       0.25405520       2.85204523
O        2.28033759       0.97905520      -0.65895477
H        0.65633759       2.87105520       0.17704523
H       -0.30466241       3.04205520       2.42604523
H        1.83533759       1.58705520      -1.27195477
H        2.72833759      -0.69294480       1.32204523
H        0.63633759       0.67405520       5.23204523
H       -0.91666241       0.99705520       4.49104523
H        1.79033759      -0.50194480       3.58804523
H        0.08904859       2.35794520       5.03787523
C       -0.41066241      -1.34394480      -4.39595477
C       -1.29966241      -0.44794480      -0.83195477
C       -2.22966241      -1.42294480      -0.52095477
C       -0.70966241      -0.42194480      -2.08595477
C       -1.03966241      -1.38094480      -3.03295477
C       -2.57066241      -2.37894480      -1.46595477
C       -1.98166241      -2.35194480      -2.71895477
H       -1.03366241       0.29405520      -0.09295477
H       -2.70866241      -1.40794480       0.44604523
H        0.02333759       0.33105520      -2.31595477
H       -3.30066241      -3.13994480      -1.22595477
H       -0.32566241      -2.36094480      -4.78395477
H        0.60433759      -0.95294480      -4.30695477
H       -2.24966241      -3.10494480      -3.44695477
H       -0.96981241      -0.71841480      -5.10733477
