19
Properties=species:S:1:pos:R:3 pbc="F F F"
C       -2.43902397       0.86337346      -3.28893957
C       -1.58102397      -0.00262654      -2.39793957
O       -1.56102397       0.25837346      -1.18093957
O       -0.92502397      -0.93262654      -2.91293957
H       -2.90902397       1.65837346      -2.70493957
H       -3.24502397       0.26737346      -3.71293957
H       -1.83894697       1.33010046      -4.08396957
C        1.83997603       0.84937346       3.66606043
C        1.18297603      -1.15562654       0.71506043
C        0.47697603       0.79037346       1.46406043
C        1.36997603       0.29537346       2.35906043
N        0.39197603      -0.12962654       0.44906043
N        1.79197603      -0.92762654       1.87406043
H       -0.20802397      -0.06162654      -0.36393957
H        1.30797603      -2.03262654       0.08906043
H       -0.06702397       1.71937346       1.54006043
H        1.90597603       1.93637346       3.60406043
H        2.84997603       0.47337346       3.83006043
H        1.18828303       0.55788346       4.50292043
