27
Properties=species:S:1:pos:R:3 pbc="F F F"
C       -0.29670163       0.99192798       3.03312753
C        1.65329837       0.26992798      -0.15987247
C        1.05529837       0.94392798       0.89412753
C        1.51029837      -1.09307202      -0.21987247
C        0.27829837       0.25692798       1.84112753
C        0.71629837      -1.79007202       0.70112753
C        0.10429837      -1.11607202       1.70812753
O        2.09829837      -1.74407202      -1.21787247
H        2.24129837       0.80392798      -0.89187247
H        1.19829837       2.01192798       0.99212753
H        2.24229837      -1.15807202      -1.99787247
H        0.55529837      -2.85007202       0.57012753
H       -1.12070163       0.43192798       3.47912753
H       -0.65870163       1.97092798       2.71412753
H       -0.66470163      -1.60407202       2.26312753
H        0.52244837       1.11261798       3.75729753
C       -1.76570163       0.78492798      -1.77387247
C       -2.09870163       1.05692798      -3.24087247
C       -2.79770163       1.25292798      -0.77387247
H       -1.65970163      -0.29507202      -1.64887247
H       -0.79670163       1.22492798      -1.52887247
H       -2.10570163       2.13792798      -3.40787247
H       -3.79970163       0.92892798      -1.05287247
H       -2.55170163       0.79892798       0.18712753
H       -3.07885163       0.63297798      -3.50461247
H       -1.31595163       0.61957798      -3.87807247
H       -2.75765163       2.34668798      -0.66391247
