24
Properties=species:S:1:pos:R:3 pbc="F F F"
C       -2.72577790       0.47265323      -1.45129748
C       -1.10077790       0.39765323       0.48270252
C       -1.59877790      -0.18134677      -0.68729748
C       -0.05077790      -0.20134677       1.18570252
C        0.51022210      -1.39034677       0.71470252
C       -1.03077790      -1.37334677      -1.14429748
C        0.02022210      -1.97734677      -0.45129748
O        1.53922210      -1.98034677       1.39070252
H       -1.53377790       1.31865323       0.85070252
H        0.32222210       0.25265323       2.09270252
H       -3.41977790       0.91265323      -0.73529748
H       -3.26977790      -0.31334677      -1.95229748
H       -1.41377790      -1.84234677      -2.04129748
H        1.74822210      -1.50134677       2.19970252
H        0.45622210      -2.89834677      -0.81129748
H       -2.40236790       1.25142323      -2.15763748
C        2.05422210       2.13065323      -0.31729748
C        1.72022210       3.56365323       0.09270252
H        2.31222210       1.53165323       0.55770252
H        1.19822210       1.68065323      -0.82029748
H        2.90422210       2.13965323      -0.99829748
H        1.42922210       4.11865323      -0.79729748
H        2.61073210       4.03944323       0.52928252
H        0.86595210       3.57301323       0.78562252
