23
Properties=species:S:1:pos:R:3 pbc="F F F"
C        2.60786996      -1.67360605       1.12917882
C       -0.88613004      -0.35560605      -0.96682118
C       -1.00813004      -1.07660605       0.22117882
C        0.37486996      -0.06360605      -1.47382118
C        0.12186996      -1.50360605       0.89917882
C        1.50086996      -0.49660605      -0.78882118
C        1.38586996      -1.21360605       0.39317882
H       -1.77013004      -0.03160605      -1.49682118
H       -1.99013004      -1.30860605       0.61017882
H        0.47286996       0.49439395      -2.39482118
H        0.01986996      -2.06260605       1.81717882
H        2.47686996      -0.26160605      -1.18782118
H        2.36786996      -1.78160605       2.18717882
H        3.38386996      -0.91060605       1.04217882
H        2.99376996      -2.63798605       0.76716882
C       -2.38213004       2.60839395       0.73317882
C       -1.42613004       3.06939395      -0.35282118
H       -3.41413004       2.81239395       0.45417882
H       -2.27613004       1.53339395       0.87317882
H       -2.14913004       3.10639395       1.67517882
H       -1.75013004       2.64439395      -1.30382118
H       -0.44913004       2.64639395      -0.13682118
H       -1.35781004       4.16322395      -0.44703118
