16
Properties=species:S:1:pos:R:3 pbc="F F F"
C       -1.86428988      -0.02651498      -1.15524469
C       -2.83328988      -0.05051498       0.00775531
H       -2.29028988       0.49748502      -2.01424469
H       -0.94928988       0.48648502      -0.85524469
H       -1.58928988      -1.04351498      -1.43824469
H       -2.45728988      -0.77251498       0.73475531
H       -3.82534388      -0.38902498      -0.32577469
H       -2.87789988       0.92226502       0.51932531
C        1.59571012       0.05448502       0.49075531
C        3.09671012       0.03548502       0.65375531
H        1.32271012      -0.12151498      -0.55024469
H        1.15171012      -0.74651498       1.08075531
H        1.18971012       1.00948502       0.82675531
H        3.45371012      -0.89351498       0.20975531
H        3.56516312       0.88072502       0.12827531
H        3.36787912       0.01596502       1.71962531
