19
Properties=species:S:1:pos:R:3 pbc="F F F"
C       -1.20828578       0.97650197       0.29361991
C       -0.72428578       1.97650197      -0.75838009
C       -2.05428578      -0.13749803      -0.30838009
H       -0.38028578       0.59150197       0.87761991
H       -1.89428578       1.50750197       0.95261991
H       -1.43828578       2.02950197      -1.58138009
H        0.23671422       1.64950197      -1.15538009
H       -2.51228578       0.22950197      -1.23338009
H       -1.40628578      -0.97949803      -0.57538009
H       -0.62602578       2.98578197      -0.33213009
H       -2.85174578      -0.45677803       0.37872991
C        1.42571422      -1.69849803       0.84461991
C        2.48871422      -1.05349803      -0.04938009
H        0.88671422      -0.95749803       1.42461991
H        0.72571422      -2.27949803       0.24061991
H        1.90371422      -2.37349803       1.55161991
H        3.21971422      -1.80849803      -0.34138009
H        2.99320422      -0.23557803       0.48587991
H        2.00646422      -0.65920803      -0.95601009
