27
Properties=species:S:1:pos:R:3 pbc="F F F"
C        1.03934432      -3.18307494      -0.75143602
C       -0.24365568      -0.44207494       1.58556398
C       -0.12265568      -1.63407494       0.88356398
C        0.69734432       0.56792506       1.41356398
C        0.92434432      -1.86907494      -0.01943602
C        1.74834432       0.35692506       0.52056398
C        1.86934432      -0.84607494      -0.17443602
O        0.54234432       1.74392506       2.10956398
H       -1.06865568      -0.31507494       2.27356398
H       -0.86465568      -2.40407494       1.02656398
H       -0.26965568       1.72792506       2.61756398
H        2.48034432       1.13992506       0.37856398
H        1.17834432      -3.96107494       0.00056398
H        1.93834432      -3.16907494      -1.36843602
H        2.70034432      -0.98707494      -0.85443602
H        0.17745432      -3.45065494      -1.38036602
C       -1.49765568       1.34192506      -1.23543602
C       -2.94465568       1.76592506      -0.97943602
N       -1.21765568       1.35092506      -2.70243602
H       -0.82065568       2.02792506      -0.71243602
H       -1.34165568       0.33492506      -0.83043602
H       -3.12065568       1.70792506       0.09756398
H       -3.61965568       1.06892506      -1.47643602
H       -1.30665568       2.27492506      -3.11143602
H       -0.26765568       1.03492506      -2.87343602
H       -1.82565568       0.70392506      -3.19543602
H       -3.17425568       2.78156506      -1.33406602
