16
Properties=species:S:1:pos:R:3 pbc="F F F"
C        0.26977215      -2.06276959       0.70414269
C        1.55977215      -2.01776959      -0.10985731
H        0.04077215      -3.09076959       0.98114269
H        0.38477215      -1.46976959       1.61114269
H       -0.55222785      -1.65476959       0.11714269
H        1.79477215      -0.97976959      -0.32985731
H        1.42524215      -2.57400959      -1.04927131
H        2.37471215      -2.45490959       0.48578369
C       -0.99122785       1.28623041      -0.19985731
C       -0.83422785       2.79223041      -0.39985731
H       -0.09222785       0.87323041       0.25314269
H       -1.82522785       1.09723041       0.47714269
H       -1.18622785       0.79323041      -1.15285731
H       -0.52922785       3.24323041       0.54414269
H       -0.08426485       3.01614041      -1.17278631
H       -1.79958485       3.22570041      -0.70017431
