31
Properties=species:S:1:pos:R:3 pbc="F F F"
C        3.50076715      -2.10634979       2.09682333
C        4.01876715      -1.60334979       3.44282333
O        4.24176715      -1.55734979       1.02282333
H        3.57276715      -3.19534979       2.07582333
H        2.45276715      -1.82834979       1.97982333
H        4.97076715      -2.10434979       3.62082333
H        4.15276715      -2.16334979       0.26982333
H        3.28602715      -1.86595800       4.22008333
H        4.21935715      -0.52291479       3.39358133
C        1.22076715       0.29365021       0.16782333
C        2.09076715       1.35765021      -0.50317667
C       -0.23423285       0.63565021       0.18482333
C       -0.90623285       1.33065021       1.14682333
C       -1.20123285       0.30365021      -0.81917667
C       -2.44923285       0.82665021      -0.39517667
C       -1.13823285      -0.38834979      -2.03417667
C       -3.60823285       0.67565021      -1.14017667
C       -2.29923285      -0.53834979      -2.78217667
C       -3.51823285      -0.01034979      -2.33717667
N       -2.23223285       1.44665021       0.80582333
H        1.36476715      -0.66134979      -0.34017667
H        1.54176715       0.17465021       1.20282333
H        1.91376715       1.31265021      -1.57917667
H       -0.46223285       1.71865021       2.05882333
H       -2.93323285       1.90065021       1.38182333
H       -0.19923285      -0.79934979      -2.38017667
H       -4.54823285       1.08365021      -0.79517667
H       -2.26323285      -1.07134979      -3.72417667
H       -4.40723285      -0.14334979      -2.94317667
H        3.15464515       1.16880021      -0.29702167
H        1.78136315       2.35637621      -0.16139367
