22
Properties=species:S:1:pos:R:3 pbc="F F F"
C        0.77450554       1.71473440      -0.66064227
C        0.34750554       1.14773440      -2.01064227
C        0.79350554       3.24273440      -0.64764227
H        0.08550554       1.37373440       0.11035773
H        1.76350554       1.32273440      -0.42764227
H        0.29150554       0.06173440      -1.92364227
H        1.20450554       3.62673440      -1.57864227
H       -0.23449446       3.60573440      -0.56364227
H        1.09652554       1.39841340      -2.77622827
H       -0.65541446       1.51897240      -2.26820627
H        1.39787554       3.64298140       0.17972873
C       -0.48949446      -1.66326560       0.70435773
C        0.26850554      -1.83026560       2.00935773
C       -1.67949446      -2.59726560       0.60635773
H       -0.83749446      -0.63526560       0.61335773
H        0.20050554      -1.87226560      -0.11264227
H        0.55850554      -2.87426560       2.08835773
H       -1.31049446      -3.62426560       0.64735773
H       -2.31849446      -2.46226560       1.47135773
H       -0.37139446      -1.57143860       2.86582773
H        1.18653554      -1.22450860       1.99272773
H       -2.23631446      -2.45842560      -0.33208727
