15
Properties=species:S:1:pos:R:3 pbc="F F F"
C       -0.62530136      -0.04899270       2.92852778
N       -0.91130136      -1.02599270       1.81952778
H       -0.45930136      -0.72299270       0.95452778
H       -0.56430136      -1.94999270       2.04352778
H       -1.90230136      -1.10299270       1.63252778
H        0.43969864      -0.09399270       3.17552778
H       -1.17530136      -0.35199270       3.82652778
H       -0.86857236       1.00304730       2.71868878
C        0.79969864       1.00200730      -2.49047222
C        0.40969864       0.27000730      -1.19347222
O       -0.73030136      -0.25399270      -1.15447222
O        1.20769864       0.21700730      -0.24147222
H       -0.03930136       1.60800730      -2.83847222
H        1.00269864       0.24600730      -3.25147222
H        1.69281564       1.63582730      -2.38747522
