23
Properties=species:S:1:pos:R:3 pbc="F F F"
C       -0.23094093      -2.92727541       0.51777927
C        1.71905907       0.13772459       0.50477927
C        0.41705907      -1.60827541       0.80777927
C        0.20105907      -0.74127541       1.83377927
N        1.36005907      -1.02727541      -0.01822073
N        1.02905907       0.33872459       1.62677927
H        2.42705907       0.82672459       0.06377927
H        1.06305907       1.17172459       2.20477927
H       -0.50194093      -0.88027541       2.64377927
H       -0.44094093      -2.97927541      -0.55022073
H       -1.17694093      -2.97127541       1.05277927
H        0.37084707      -3.79788641       0.81759227
C       -1.02094093       1.66972459      -1.23222073
C       -0.61794093       1.61072459      -2.70222073
C       -2.45794093       2.15472459      -0.99722073
H       -0.92194093       0.66872459      -0.81322073
H       -0.33294093       2.32272459      -0.69522073
H       -0.66594093       2.62072459      -3.10722073
H       -3.15694093       1.49872459      -1.51522073
H       -1.29627493       0.95495159      -3.26774973
H        0.43566507       1.31020959      -2.80023073
H       -2.68892293       2.10983159       0.07731727
H       -2.59345193       3.18446059      -1.35954853
