21
Properties=species:S:1:pos:R:3 pbc="F F F"
C        0.16928804       0.90250833      -0.65545343
C       -0.73671196       1.79850833       0.19254657
C        0.67028804       1.55750833      -1.93445343
O        0.22228804       2.63150833      -2.32845343
N        1.61428804       0.90550833      -2.59545343
H        1.04228804       0.64050833      -0.05745343
H       -0.34371196      -0.02549167      -0.90745343
H       -0.38871196       2.83350833       0.17154657
H       -0.64671196       1.45550833       1.22454657
H        1.95128804       1.30450833      -3.45545343
H        1.96228804       0.01450833      -2.24345343
H       -1.79938196       1.74098933      -0.08570343
C       -1.86971196      -1.46049167       1.45254657
C        0.37228804      -2.98849167       1.36554657
S       -0.18571196      -1.43749167       2.06354657
H       -2.37271196      -2.37649167       1.76554657
H       -2.38871196      -0.60649167       1.88054657
H       -1.90271196      -1.36149167       0.36854657
H       -0.03471196      -3.79249167       1.96054657
H        1.44928804      -3.02149167       1.42254657
H        0.03596804      -3.16607567       0.33338757
