19
Properties=species:S:1:pos:R:3 pbc="F F F"
C       -1.03597776      -0.18370161      -1.00252866
C       -0.29197776       1.10029839      -1.36252866
C       -2.02997776      -0.33170161      -2.14852866
H       -1.57497776      -0.04770161      -0.06352866
H       -0.36197776      -1.03870161      -0.93952866
H        0.07802224       1.59229839      -0.46152866
H        0.53102224       0.87629839      -2.04352866
H       -2.89497776      -0.91570161      -1.82952866
H       -1.56697776      -0.84370161      -2.98252866
H       -1.05420476       1.70689149      -1.87346866
H       -2.31211676       0.69778339      -2.41415866
C        1.19102224      -0.29270161       1.60747134
C        2.10702224      -0.30770161       2.84147134
H        1.79102224      -0.31370161       0.69647134
H        0.53202224      -1.16270161       1.62247134
H        0.57502224       0.60629839       1.61047134
H        1.48602224      -0.28770161       3.73947134
H        2.79198224       0.55300639       2.84447134
H        2.69373224      -1.23787661       2.86471134
