18
Properties=species:S:1:pos:R:3 pbc="F F F"
C       -0.43928309       0.29464399      -0.35853220
C       -1.16528309      -0.45735601      -1.47953220
C       -0.12928309       1.73964399      -0.71553220
O       -0.44228309       2.18664399      -1.84253220
O        0.43071691       2.43964399       0.15746780
H       -1.02728309       0.24364399       0.55946780
H        0.50971691      -0.21035601      -0.17753220
H       -0.62428309      -0.25635601      -2.40453220
H       -2.20013309      -0.10009601      -1.58655920
H       -1.12297309      -1.54742601      -1.33825320
C        0.83071691      -2.39135601       1.66746780
C        0.86971691      -3.66635601       2.50146780
H        1.47471691      -1.63235601       2.11046780
H        1.17071691      -2.60635601       0.65546780
H       -0.19028309      -2.01435601       1.62446780
H        0.23471691      -4.39935601       2.00446780
H        0.46551691      -3.44275601       3.49977980
H        1.89131691      -4.07126601       2.55028680
