19
Properties=species:S:1:pos:R:3 pbc="F F F"
C       -1.09571501       0.81129925      -1.37961022
C       -1.60671501       1.91029925      -2.35561022
H       -0.73171501      -0.06170075      -1.91861022
H       -0.28271501       1.24329925      -0.80261022
H       -1.90371501       0.51629925      -0.70861022
H       -2.08771501       2.68829925      -1.76361022
H       -2.32182501       1.55309925      -3.11128022
H       -0.75158501       2.37686925      -2.86655022
C        0.87528499      -0.39370075       1.45138978
C        1.87728499      -0.82970075       0.36938978
C        0.00428499      -1.53870075       2.00638978
H        1.43128499       0.04329925       2.28338978
H        0.22228499       0.38129925       1.06338978
H        1.32828499      -1.28970075      -0.45461022
H        0.64328499      -2.25770075       2.51738978
H        2.60110499      -1.55352075       0.77208978
H        2.41381499       0.03738925      -0.04327022
H       -0.69785501      -1.13152075       2.74881978
H       -0.51144501      -2.06308075       1.18843978
