16
Properties=species:S:1:pos:R:3 pbc="F F F"
C        0.16487441       1.65690399      -0.60836233
C        0.99687441       2.88990399      -0.92836233
H       -0.85312559       1.75290399      -0.99136233
H        0.63487441       0.77790399      -1.05236233
H        0.12387441       1.49990399       0.47063767
H        1.93187441       2.80090399      -0.37136233
H        0.50067441       3.81902599      -0.61130933
H        1.24976441       2.93382299      -1.99799743
C       -0.17712559      -1.64909601       0.62063767
C       -0.99512559      -2.89509601       0.90863767
H       -0.51212559      -0.82509601       1.24963767
H        0.87387441      -1.83909601       0.84163767
H       -0.27812559      -1.37309601      -0.42836233
H       -0.91712559      -3.10709601       1.97463767
H       -2.05006559      -2.72141601       0.64990667
H       -0.57922559      -3.74983601       0.35506267
