16
Properties=species:S:1:pos:R:3 pbc="F F F"
C        0.83149292       1.70904316       1.13380512
C        1.04649292       2.46804316      -0.16219488
H        1.65349292       1.02904316       1.34880512
H        0.81649292       2.43804316       1.93880512
H       -0.11350708       1.16804316       1.09980512
H        1.98649292       3.01604316      -0.07919488
H        0.24449292       3.20004316      -0.25919488
H        1.07880292       1.83269316      -1.05957488
C       -0.80650708      -1.62795684       0.09480512
C       -1.06750708      -2.56395684      -1.07119488
H        0.21749292      -1.26895684       0.08780512
H       -1.47450708      -0.76995684       0.03480512
H       -0.99350708      -2.14595684       1.03580512
H       -0.90150708      -2.02395684      -2.00419488
H       -2.12250708      -2.83195684      -1.03919488
H       -0.43905708      -3.46644684      -1.04752488
