31
Properties=species:S:1:pos:R:3 pbc="F F F"
C        1.21491919       0.97339577       0.64994164
C        1.31191919       2.24939577       1.49194164
C       -0.00908081       0.91739577      -0.20505836
C       -0.13608081       1.37339577      -1.47105836
C       -1.28508081       0.36739577       0.15694164
C       -2.14908081       0.52639577      -0.95405836
C       -1.79108081      -0.23460423       1.31494164
C       -3.46608081       0.09839577      -0.93805836
C       -3.10008081      -0.68060423       1.32494164
C       -3.92508081      -0.51660423       0.20894164
N       -1.42208081       1.13939577      -1.93405836
H        2.09091919       0.91539577       0.00594164
H        1.21791919       0.10239577       1.30594164
H        0.41191919       2.32239577       2.10594164
H        0.65391919       1.84239577      -2.04905836
H       -1.74808081       1.38139577      -2.86305836
H       -1.16208081      -0.34660423       2.18694164
H       -4.10608081       0.23239577      -1.79905836
H       -3.49708081      -1.16160423       2.21094164
H       -4.94708081      -0.87060423       0.24894164
H        1.36054919       3.11793577       0.81869164
H        2.16222919       2.15050577       2.18273164
C        3.61191919      -1.70360423      -0.19805836
C        4.87891919      -2.21060423      -0.87505836
O        3.72091919      -1.79260423       1.20994164
H        3.45691919      -0.66460423      -0.48305836
H        2.75991919      -2.27460423      -0.55705836
H        4.75091919      -2.07560423      -1.95005836
H        4.20391919      -0.99060423       1.48494164
H        5.07645919      -3.27296423      -0.66921836
H        5.73645919      -1.60741423      -0.54221836
