23
Properties=species:S:1:pos:R:3 pbc="F F F"
C        1.21724840       0.92418608       3.13239926
C       -0.49575160      -1.28681392      -0.15460074
C       -1.31275160      -0.78181392       0.84039926
C        0.87524840      -1.08181392      -0.09060074
C       -0.75775160      -0.05681392       1.89539926
C        1.43324840      -0.36381392       0.97239926
C        0.62024840       0.14918608       1.97739926
H       -0.92375160      -1.84581392      -0.97660074
H       -2.37575160      -0.95681392       0.79739926
H        1.51424840      -1.47881392      -0.86760074
H       -1.40975160       0.34818608       2.65039926
H        2.50324840      -0.21781392       1.01139926
H        0.56624840       1.77518608       3.33839926
H        2.17124840       1.33518608       2.84039926
H        1.34241840       0.34599708       4.05977926
C       -0.66875160       0.32118608      -3.55160074
C       -0.82875160       1.72118608      -4.16060074
H       -1.14875160      -0.42881392      -4.17860074
H        0.39224840       0.07918608      -3.47760074
H       -1.10375160       0.29718608      -2.55260074
H       -0.47175160       1.71418608      -5.19160074
H       -0.17075160       2.37118608      -3.58660074
H       -1.86529160       2.08727808      -4.12112074
