19
Properties=species:S:1:pos:R:3 pbc="F F F"
C       -4.09758469      -0.38438293      -0.95203088
C       -2.60158469      -0.58938293      -0.73903088
O       -1.82158469       0.19261707      -1.31303088
O       -2.20858469      -1.51238293       0.00896912
H       -4.30858469      -0.26938293      -2.01703088
H       -4.39558469       0.53761707      -0.45403088
H       -4.69553269      -1.21347093      -0.54574188
C        3.23041531       1.10761707       2.18196912
C        1.67041531      -0.44838293      -0.70003088
C        1.03841531       1.03161707       0.79796912
C        2.31541531       0.66561707       1.07996912
N        0.66341531       0.32461707      -0.31903088
N        2.69441531      -0.26138293       0.12796912
H       -0.26658469       0.31961707      -0.73603088
H        1.65441531      -1.12438293      -1.54803088
H        0.43841531       1.73761707       1.35096912
H        3.51041531       0.22461707       2.75196912
H        2.69141531       1.78161707       2.84996912
H        4.14398031       1.59898307       1.81596654
