16
Properties=species:S:1:pos:R:3 pbc="F F F"
C        2.23980216       0.90209360      -1.53242756
C        1.69780216      -0.42790640      -2.00642756
O        2.23480216      -1.03790640      -2.93942756
N        0.58780216      -0.86090640      -1.41242756
H        0.19080216      -1.73490640      -1.72042756
H        0.14980216      -0.35390640      -0.65242756
H        3.23080216       1.05309360      -1.94242756
H        2.30180216       0.86509360      -0.44642756
H        1.54008716       1.67856360      -1.87520756
C       -2.56519784       1.52309360       1.94257244
C       -1.60119784       0.31209360       1.97157244
O       -1.56419784      -0.43290640       0.93857244
O       -0.94519784       0.05409360       3.01557244
H       -3.57619784       1.15409360       1.75057244
H       -2.30719784       2.13409360       1.08057244
H       -2.61334284       2.13533360       2.85518244
