24
Properties=species:S:1:pos:R:3 pbc="F F F"
C        2.81125506       0.13356126      -2.15189229
C        3.54925506      -1.16143874      -2.52089229
H        1.98325506       0.30656126      -2.83689229
H        3.49625506       0.97956126      -2.19289229
H        2.40825506       0.04856126      -1.14389229
H        2.84425506      -1.99143874      -2.47589229
H        3.98278706      -1.09037974      -3.52935229
H        4.35300906      -1.35602374      -1.79555229
C       -1.56774494       2.84656126      -0.22389229
C       -0.68574494       0.54256126      -0.65189229
C       -1.20374494       1.46956126       0.24810771
C       -0.35274494      -0.73843874      -0.26689229
C       -0.55774494      -1.13343874       1.03410771
C       -1.40574494       1.08356126       1.56410771
C       -1.08474494      -0.21943874       1.95710771
O       -0.25974494      -2.40543874       1.39810771
H       -0.53474494       0.83356126      -1.68389229
H        0.04925506      -1.44043874      -0.98189229
H       -0.89874494       3.12356126      -1.03289229
H       -1.44974494       3.56356126       0.59010771
H       -1.83474494       1.78056126       2.27110771
H       -0.49274494      -2.57643874       2.31610771
H       -1.25774494      -0.52743874       2.97810771
H       -2.59543894       2.88684926      -0.61405229
