27
Properties=species:S:1:pos:R:3 pbc="F F F"
C        0.02934879      -3.03270947      -0.17895636
C        0.15334879      -0.62070947       0.47804364
C       -0.61265121      -1.77070947       0.30604364
C       -0.42965121       0.56529053       0.91304364
C       -1.77865121       0.62229053       1.14404364
C       -1.97465121      -1.71470947       0.56704364
C       -2.56165121      -0.52470947       1.00204364
O       -2.30865121       1.81429053       1.55104364
H        1.21434879      -0.67570947       0.29904364
H        0.18234879       1.44529053       1.04804364
H       -0.55565121      -3.88170947       0.17504364
H        1.01534879      -3.11070947       0.28404364
H       -2.58565121      -2.59770947       0.44004364
H       -1.63865121       2.50229053       1.61704364
H       -3.61765121      -0.47770947       1.22104364
H        0.14846879      -3.11259947      -1.26956536
C        2.94734879       1.44729053      -1.19195636
C        1.96934879       2.01329053      -2.15295636
C        3.86234879       0.54429053      -2.01295636
H        2.42134879       0.88029053      -0.43195636
H        3.51834879       2.24329053      -0.71295636
H        1.00534879       2.20629053      -1.67895636
H        2.37034879       2.93729053      -2.57295636
H        4.83434879       1.02429053      -2.14595636
H        1.88146879       1.26379053      -2.95329036
H        3.35282879       0.43937053      -2.98217336
H        3.97745879      -0.43774947      -1.53093036
