23
Properties=species:S:1:pos:R:3 pbc="F F F"
C       -1.65587839       1.90664513       0.88466198
C       -1.90887839       3.39764513       0.67766198
C       -1.30587839       1.62464513       2.34866198
H       -2.55187839       1.35264513       0.62066198
H       -0.83887839       1.59164513       0.24366198
H       -1.14687839       3.96064513       1.21766198
H       -1.97487839       2.21664513       2.97466198
H       -1.46287839       0.56764513       2.56266198
H       -2.91129839       3.63024513       1.06632198
H       -1.80126839       3.70454513      -0.37314802
H       -0.26195839       1.88652513       2.57591198
C        1.47412161      -2.25235487       1.18666198
C        0.58612161       0.01364513      -1.53833802
C        1.05112161      -1.60335487      -0.11133802
C        0.71412161      -2.16935487      -1.30533802
N        0.96112161      -0.23435487      -0.28933802
N        0.43112161      -1.14635487      -2.17333802
H        0.44812161       1.02364513      -1.90733802
H        0.15412161      -1.26135487      -3.13633802
H        0.65412161      -3.19935487      -1.60333802
H        2.41812161      -1.79035487       1.47766198
H        1.64012161      -3.30435487       0.97266198
H        0.74258161      -2.12547487       1.99830198
