23
Properties=species:S:1:pos:R:3 pbc="F F F"
C       -2.73922025       0.94788668      -0.66222450
C       -0.35322025      -1.44611332       1.06377550
C        0.62477975      -0.57911332       1.53277550
C       -1.43722025      -0.94711332       0.35177550
C       -1.55022025       0.41488668       0.09377550
C        0.51477975       0.78388668       1.28377550
C       -0.57222025       1.27888668       0.57377550
H       -0.27122025      -2.50811332       1.25777550
H        1.47277975      -0.96511332       2.08177550
H       -2.20822025      -1.60711332      -0.00322450
H        1.28777975       1.45888668       1.61377550
H       -3.14422025       1.79088668      -0.10622450
H       -3.50422025       0.18088668      -0.69222450
H       -0.65222025       2.34088668       0.38777550
H       -2.51046025       1.32150668      -1.67122450
C        2.41277975      -0.63311332      -1.14322450
C        2.62777975       0.12588668      -2.43922450
H        3.23477975      -1.31311332      -0.92822450
H        2.39777975       0.09588668      -0.33822450
H        1.46777975      -1.17411332      -1.17722450
H        3.56777975       0.67388668      -2.35622450
H        1.82577975       0.85788668      -2.53622450
H        2.66008975      -0.50946332      -3.33660450
