16
Properties=species:S:1:pos:R:3 pbc="F F F"
C       -0.26283874      -1.25234574       1.21210154
C       -0.55383874      -1.35634574       2.69610154
H       -1.13383874      -0.86334574       0.68110154
H        0.58016126      -0.57934574       1.04810154
H       -0.02383874      -2.23634574       0.80610154
H        0.35216126      -1.68634574       3.21010154
H       -1.35542874      -2.08533674       2.88591154
H       -0.82293874      -0.36530774       3.09035154
C       -0.28083874       1.24165426      -1.62089846
C        1.09616126       1.36265426      -2.29189846
H       -0.71783874       0.26465426      -1.83089846
H       -0.16883874       1.35465426      -0.54189846
H       -0.95283874       2.01865426      -1.97189846
H        1.49216126       2.34765426      -2.04989846
H        0.98169126       1.27698426      -3.38256846
H        1.78553126       0.60565226      -1.88976846
