24
Properties=species:S:1:pos:R:3 pbc="F F F"
C        1.53647548      -2.83233041       0.50540496
C       -0.01352452       0.64166959       0.73140496
C        0.19347548      -0.72233041       0.86540496
C        0.93247548       1.41566959       0.06340496
C        1.33147548      -1.33833041       0.34840496
C        2.06147548       0.82066959      -0.47159504
C        2.25947548      -0.54433041      -0.34059504
O        0.73347548       2.75466959      -0.06959504
H       -0.91652452       1.08866959       1.11240496
H       -0.54852452      -1.32333041       1.37840496
H       -0.17152452       2.94266959       0.16240496
H        2.78847548       1.42866959      -0.99159504
H        1.19947548      -3.12433041       1.50140496
H        2.60147548      -3.05533041       0.43740496
H        3.14847548      -0.99533041      -0.76259504
H        0.97629548      -3.42644041      -0.23163704
C       -3.30452452      -0.33933041      -0.96059504
C       -4.71552452      -0.11633041      -0.49059504
H       -2.96952452      -1.34533041      -0.70959504
H       -3.26352452      -0.23533041      -2.04459504
H       -2.63852452       0.39066959      -0.50359504
H       -5.34352452      -0.85133041      -0.95759504
H       -5.00752452       0.86066959      -0.87359504
H       -4.84837452      -0.15133041       0.60079196
