16
Properties=species:S:1:pos:R:3 pbc="F F F"
C       -0.86574351      -1.47030190      -1.26732702
C       -1.10674351      -0.20630190      -2.01632702
O       -1.55774351      -0.24330190      -3.17132702
N       -0.78574351       0.91269810      -1.39832702
H       -0.96374351       1.79069810      -1.85832702
H       -0.42774351       0.88169810      -0.44232702
H       -1.57674351      -2.20730190      -1.63132702
H       -1.06274351      -1.33330190      -0.21132702
H        0.17805649      -1.79812390      -1.38144702
C        2.02025649       0.76269810       2.86067298
C        1.03425649       0.19769810       1.88967298
O        0.15525649       0.98669810       1.40567298
O        1.10025649      -1.01030190       1.63867298
H        1.54325649       0.70569810       3.84167298
H        2.16125649       1.82969810       2.69067298
H        2.97090649       0.21866510       2.96215098
