27
Properties=species:S:1:pos:R:3 pbc="F F F"
C       -1.40115726       0.63107260      -2.41975613
C       -2.38815726      -0.14392740      -3.31675613
C       -1.95015726       1.88707260      -1.71475613
H       -1.10415726      -0.09392740      -1.66675613
H       -0.52815726       0.90207260      -3.01475613
H       -2.50815726       0.39207260      -4.25975613
H       -2.76815726       1.58707260      -1.06075613
H       -3.36658726      -0.22999740      -2.82150613
H       -1.97937726      -1.13461740      -3.56460613
H       -1.17297726       2.37728260      -1.11004613
H       -2.37337726       2.58555260      -2.45164613
C       -0.14515726       0.87707260       3.56224387
C       -0.01615726      -1.23592740       0.36324387
C        1.20384274      -0.87192740      -0.20475613
C       -0.40915726      -0.70492740       1.61024387
C        0.39984274       0.18107260       2.31224387
C        2.06884274      -0.01392740       0.51624387
C        1.64584274       0.50707260       1.77124387
O        1.43684274      -1.28192740      -1.49575613
H       -0.66315726      -1.91692740      -0.17275613
H       -1.36315726      -0.97592740       2.04224387
H        3.07484274       0.16207260       0.15024387
H        2.23684274      -0.91392740      -1.87975613
H        0.68284274       1.16407260       4.20924387
H       -0.79115726       0.18307260       4.10924387
H        2.28284274       1.16707260       2.33124387
H       -0.64929726       1.83288260       3.35661387
