27
Properties=species:S:1:pos:R:3 pbc="F F F"
C        3.63278996       1.09275739      -1.88748887
C        4.63878996       2.04475739      -1.24248887
H        4.07778996       0.59875739      -2.75248887
H        3.29778996       0.33875739      -1.17848887
H        2.74378996       1.63775739      -2.20048887
H        4.13578996       2.56475739      -0.42548887
H        5.01760596       2.79093139      -1.95643887
H        5.49130496       1.47736639      -0.84088887
C       -3.52721004      -1.70124261      -0.25848887
C       -0.08921004      -0.55924261       0.74751113
C       -1.36621004      -0.28124261       0.17451113
C       -2.13321004      -1.48524261       0.23251113
C       -1.33821004      -2.42324261       0.82551113
C        0.63778996       1.67475739       0.37251113
C        0.89678996       0.40875739       0.86151113
C       -0.61221004       1.97475739      -0.20848887
C       -1.60121004       1.00975739      -0.30448887
N       -0.12821004      -1.87124261       1.13851113
H        1.39878996       2.44175739       0.43251113
H        1.85078996       0.17275739       1.31151113
H       -0.79821004       2.96275739      -0.60348887
H       -2.54621004       1.22975739      -0.76948887
H        0.62578996      -2.37824261       1.59151113
H       -1.62921004      -3.45224261       1.01751113
H       -3.58121004      -2.70724261      -0.67848887
H       -3.71521004      -0.99924261      -1.06848887
H       -4.32471004      -1.59186761       0.49120113
