23
Properties=species:S:1:pos:R:3 pbc="F F F"
C        0.35658660      -2.51444533      -1.91205799
C        0.81758660      -3.45444533      -3.01205799
H       -0.70441340      -2.28944533      -2.02405799
H        0.52158660      -2.97144533      -0.93805799
H        0.92258660      -1.58244533      -1.96005799
H        1.87758660      -3.64344533      -2.88705799
H        0.64605660      -3.01357533      -4.00513999
H        0.26629660      -4.40462533      -2.95517899
C        2.01858660       1.85355467       1.38794201
C       -0.85941340      -0.55144533       0.76994201
C        0.40758660      -0.04444533       1.07894201
C       -1.86741340       0.29655467       0.37494201
C        0.66258660       1.31855467       1.01394201
C       -1.62241340       1.66455467       0.29394201
C       -0.36141340       2.17155467       0.63194201
H       -1.04041340      -1.61044533       0.84394201
H        1.18758660      -0.72544533       1.38694201
H       -2.84441340      -0.09544533       0.13094201
H       -2.41541340       2.32955467      -0.01805799
H        2.11258660       2.89255467       1.07794201
H        2.76558660       1.27855467       0.84294201
H       -0.17141340       3.22755467       0.55894201
H        2.21108660       1.79059467       2.46913201
