19
Properties=species:S:1:pos:R:3 pbc="F F F"
C       -2.02779287       2.86090286       2.32821671
C       -0.48979287       1.13290286      -0.46078329
C       -1.28479287       1.92290286       1.42721671
C       -0.65979287       0.74990286       1.70021671
N       -1.17179287       2.14390286       0.06721671
N       -0.16879287       0.27990286       0.50421671
H       -0.25179287       1.00890286      -1.51178329
H        0.29220713      -0.61809714       0.34321671
H       -0.55479287       0.29690286       2.67521671
H       -1.60079287       3.85390286       2.18721671
H       -1.87679287       2.57090286       3.36821671
H       -3.10266287       2.89618286       2.09711581
C        2.52820713      -2.87409714      -1.58878329
C        1.28120713      -2.05709714      -1.28678329
O        0.68820713      -2.21809714      -0.19578329
O        0.88820713      -1.25509714      -2.15478329
H        3.33320713      -2.21709714      -1.91678329
H        2.29620713      -3.55809714      -2.40778329
H        2.85092713      -3.46634714      -0.71981929
