27
Properties=species:S:1:pos:R:3 pbc="F F F"
C        1.85658307      -1.33483676      -1.47946782
C        1.00958307      -1.57983676      -2.72246782
N        3.14658307      -2.07183676      -1.55246782
H        2.03358307      -0.25883676      -1.37146782
H        1.29258307      -1.66883676      -0.60146782
H        0.92358307      -2.65483676      -2.89946782
H        1.51958307      -1.11983676      -3.56446782
H        3.71258307      -1.76583676      -2.33546782
H        3.69258307      -1.92383676      -0.71046782
H        2.99958307      -3.07083676      -1.63646782
H        0.00033307      -1.15481176      -2.61873282
C       -2.04741693       3.13116324      -0.35546782
C       -0.32141693      -0.40583676       1.36153218
C       -1.67941693      -0.36883676       1.07253218
C        0.48258307       0.69916324       1.09453218
C       -2.22941693       0.78116324       0.51653218
C       -0.07541693       1.84516324       0.53753218
C       -1.43541693       1.89416324       0.24153218
O        0.22658307      -1.52683676       1.90553218
H       -2.30541693      -1.22383676       1.28453218
H       -0.43541693      -2.21083676       2.06553218
H        1.53758307       0.66216324       1.33053218
H       -3.29041693       0.81116324       0.29653218
H        0.55358307       2.70416324       0.33653218
H       -1.38741693       3.98816324      -0.21046782
H       -2.96141693       3.33516324       0.20453218
H       -2.30357693       3.03086424      -1.42051382
