16
Properties=species:S:1:pos:R:3 pbc="F F F"
C        1.56922062      -1.38980205      -0.39020513
C        2.24822062      -1.78180205       0.92479487
H        2.04722062      -1.88280205      -1.23020513
H        0.51122062      -1.64680205      -0.37620513
H        1.65322062      -0.30980205      -0.50920513
H        1.63222062      -1.44380205       1.75879487
H        3.24151062      -1.31186005       0.97514587
H        2.39854062      -2.87000005       0.98161387
C       -1.42277938       0.99219795      -0.28820513
C       -2.39777938       2.17419795      -0.24520513
H       -1.69377938       0.31219795      -1.09820513
H       -0.40677938       1.35719795      -0.44820513
H       -1.45877938       0.45219795       0.65879487
H       -2.10177938       2.84019795       0.56579487
H       -3.43125938       1.82446795      -0.10516113
H       -2.35440938       2.74086795      -1.18701213
