16
Properties=species:S:1:pos:R:3 pbc="F F F"
C       -1.08219464       0.35103886      -1.41111151
C       -1.54919464       1.75603886      -1.04111151
H       -1.72019464      -0.06996114      -2.18911151
H       -0.05519464       0.39503886      -1.78111151
H       -1.11519464      -0.29096114      -0.53111151
H       -0.86819464       2.13903886      -0.28411151
H       -2.56307464       1.72727886      -0.61542151
H       -1.50508464       2.42127886      -1.91604151
C        1.81880536      -0.79496114       0.71388849
C        0.80880536      -1.31696114       1.73488849
H        1.43280536      -0.88496114      -0.30011151
H        2.02180536       0.25903886       0.90788849
H        2.75280536      -1.35496114       0.79088849
H       -0.10319464      -0.73396114       1.63088849
H        0.57643536      -2.37985114       1.57279849
H        1.19130536      -1.16929114       2.75561849
