25
Properties=species:S:1:pos:R:3 pbc="F F F"
C       -0.90497689      -0.42650408      -2.45068854
C        0.53702311       0.05749592      -2.66668854
C       -1.04597689      -1.93150408      -2.20968854
O       -0.07297689      -2.59250408      -1.77268854
O       -2.15997689      -2.44250408      -2.48068854
H       -1.31597689       0.10349592      -1.59068854
H       -1.50597689      -0.13050408      -3.31368854
H        1.11702311      -0.16850408      -1.77368854
H        0.50702311       1.14149592      -2.75768854
H        1.05375311      -0.36360408      -3.54171054
C       -0.56397689       3.33349592       1.88531146
C       -0.37997689       0.95349592       1.10331146
C        0.13102311       1.99649592       1.86831146
C        0.26202311      -0.28150408       1.07631146
C        1.31602311       1.79949592       2.58031146
C        1.42702311      -0.47250408       1.79731146
C        1.95902311       0.56649592       2.54631146
H       -1.27897689       1.09849592       0.52331146
H       -0.14397689      -1.09350408       0.49131146
H       -1.40897689       3.32849592       1.19431146
H        0.15102311       4.06549592       1.51031146
H        1.74602311       2.60949592       3.15331146
H        1.92602311      -1.43150408       1.76531146
H        2.88402311       0.42949592       3.07531146
H       -0.90546689       3.65920592       2.87894146
