16
Properties=species:S:1:pos:R:3 pbc="F F F"
C       -0.36973742      -2.07619844       0.80572887
C       -1.84573742      -1.89219844       1.16872887
O       -0.14873742      -1.78119844      -0.56227113
H        0.24426258      -1.40719844       1.41172887
H       -0.07573742      -3.10719844       1.00772887
H       -2.43173742      -2.63319844       0.62572887
H        0.25726258      -0.87619844      -0.61527113
H       -2.18502042      -0.88492944       0.88535887
H       -1.97792442      -2.05852244       2.24801687
C        1.14026258       2.78780156      -0.52627113
C        0.55826258       1.40480156      -0.34427113
O        1.03426258       0.45380156      -0.99827113
O       -0.35273742       1.25880156       0.48972887
H        1.32526258       2.98080156      -1.58627113
H        2.09226258       2.84680156       0.00572887
H        0.45475338       3.55682056      -0.14067113
