27
Properties=species:S:1:pos:R:3 pbc="F F F"
C        2.04796480       2.75479192      -2.29559386
C        2.31096480       3.18579192      -0.84859386
H        1.05496480       3.05679192      -2.62159386
H        2.10896480       1.66979192      -2.36759386
H        2.79296480       3.19479192      -2.96059386
H        1.56896480       2.74379192      -0.18859386
H        2.26161780       4.28216192      -0.77421386
H        3.29982180       2.82335192      -0.53110386
C       -0.96303520       1.65579192      -0.31759386
C       -2.41703520       1.71279192      -0.86959386
C       -0.59903520       0.27879192       0.15440614
C       -0.08103520      -0.64820808      -0.74559386
C       -0.80103520      -0.10720808       1.47040614
C        0.25196480      -1.92920808      -0.36059386
C       -0.48003520      -1.41020808       1.86340614
C        0.04696480      -2.32420808       0.94040614
O        0.34496480      -3.59620808       1.30440614
H       -0.29403520       1.93279192      -1.12659386
H       -0.84503520       2.37279192       0.49640614
H       -2.49603520       0.94579192      -1.64159386
H        0.06996480      -0.35720808      -1.77759386
H       -1.23003520       0.58979192       2.17740614
H        0.65396480      -2.63120808      -1.07559386
H       -0.65303520      -1.71820808       2.88440614
H        0.11196480      -3.76720808       2.22240614
H       -2.59556880       2.69962192      -1.32157386
H       -3.14213830       1.48165192      -0.07536386
