20
Properties=species:S:1:pos:R:3 pbc="F F F"
C       -1.93893603       3.33896157      -0.23296136
C       -1.20393603       0.99096157      -0.53196136
N       -1.25393603      -0.12903843      -1.22196136
N       -1.91893603       2.03996157      -0.91696136
N       -0.43593603       1.05196157       0.53803864
H       -1.89993603      -0.23803843      -1.98996136
H       -0.65893603      -0.90703843      -0.93596136
H       -2.51893603       1.92696157      -1.72296136
H       -0.58993603       1.78096157       1.22303864
H        0.11506397       0.23596157       0.81903864
H       -1.93793603       3.20296157       0.85003864
H       -2.85893603       3.86896157      -0.48696136
H       -1.07735603       3.95644057      -0.52689136
C        2.78606397      -2.70503843       0.88803864
C        1.63306397      -1.76603843       0.56303864
O        1.06306397      -1.87603843      -0.54296136
O        1.28006397      -0.92403843       1.41903864
H        3.06406397      -3.28403843       0.00603864
H        2.44506397      -3.41203843       1.64703864
H        3.66754397      -2.17801893       1.28204864
