27
Properties=species:S:1:pos:R:3 pbc="F F F"
C       -1.26037114       2.21350996      -0.17781176
C       -2.69737114       2.31850996      -0.68981176
C       -0.25337114       3.09550996      -0.91681176
H       -1.25837114       2.46550996       0.88018824
H       -0.93137114       1.17850996      -0.25681176
H       -2.70337114       2.18250996      -1.77181176
H       -0.68037114       4.08350996      -1.06381176
H       -3.10769114       3.30961226      -0.44618476
H       -3.29722114       1.49831196      -0.26855176
H        0.66934586       3.21752806      -0.33054776
H       -0.03093614       2.66436176      -1.90404776
C        2.71362886      -0.48049004      -1.67681176
C       -0.42137114      -1.29249004       1.15518824
C       -0.53237114      -1.74549004      -0.15281176
C        0.70462886      -0.57849004       1.55218824
C        0.48462886      -1.48149004      -1.06381176
C        1.71862886      -0.31949004       0.63418824
C        1.61662886      -0.76549004      -0.68181176
O       -1.41837114      -1.55849004       2.04118824
H       -1.40537114      -2.30149004      -0.46481176
H       -2.13437114      -2.05449004       1.63718824
H        0.77162886      -0.21949004       2.56918824
H        0.39662886      -1.85949004      -2.06881176
H        2.59462886       0.23450996       0.94618824
H        3.20762886       0.45150996      -1.39481176
H        2.25562886      -0.31949004      -2.65281176
H        3.46137286      -1.28293004      -1.76029476
