20
Properties=species:S:1:pos:R:3 pbc="F F F"
C       -1.40430983      -1.89491493       3.22000817
C       -0.44830983      -1.54791493       2.07000817
O       -0.25730983      -0.33991493       1.80500817
O        0.10369017      -2.47991493       1.43700817
H       -1.19530983      -1.25591493       4.07900817
H       -1.26230983      -2.93891493       3.50700817
H       -2.45598983      -1.75947493       2.92738817
C        0.01669017       1.62508507      -3.60599183
C        0.49269017       1.16008507      -1.23199183
N       -0.58530983       0.41508507      -1.11299183
N        0.81069017       1.72408507      -2.38399183
N        1.28769017       1.34508507      -0.20499183
H       -1.18230983       0.25108507      -1.91799183
H       -0.81230983      -0.00791493      -0.22499183
H        1.66169017       2.28408507      -2.42899183
H        2.13169017       1.90708507      -0.31999183
H        1.06669017       0.92508507       0.68900817
H       -0.89330983       1.06508507      -3.38699183
H        0.59269017       1.07408507      -4.35299183
H       -0.23273983       2.63194507      -3.97206183
