23
Properties=species:S:1:pos:R:3 pbc="F F F"
C       -0.81505323      -1.85485159       1.07612015
C        0.11994677      -3.05485159       1.35612015
O       -1.12605323      -1.73385159      -0.30087985
H       -1.74105323      -1.99385159       1.63512015
H       -0.33705323      -0.94285159       1.43212015
H       -0.31205323      -3.95485159       0.91712015
H       -1.48705323      -2.57785159      -0.61687985
H        0.27289177      -3.18830159       2.43723015
H        1.10693177      -2.87224159       0.90610715
C        0.28094677       1.55414841      -0.30387985
C       -0.26705323       1.43214841      -1.72887985
C        1.71594677       1.03414841      -0.26587985
C        0.22294677       3.00114841       0.18712015
H       -0.31805323       0.94614841       0.36612015
H       -0.03805323       0.43114841      -2.09787985
H        0.26194677       2.14714841      -2.36087985
H        2.33994677       1.60314841      -0.95487985
H        2.11594677       1.12514841       0.74312015
H        1.73394677      -0.01685159      -0.55287985
H       -0.80705323       3.35414841       0.21412015
H        0.63194677       3.05914841       1.19612015
H        0.81294677       3.64614841      -0.46487985
H       -1.34950123       1.58974841      -1.84493285
