18
Properties=species:S:1:pos:R:3 pbc="F F F"
C        0.27339975      -2.06475476       1.13012972
C        0.78339975      -0.67675476       1.50812972
O        2.01139975      -0.42675476       1.51312972
O       -0.10060025       0.17724524       1.78412972
H       -0.50960025      -1.98075476       0.37312972
H       -0.18560025      -2.50475476       2.01812972
H        1.05039975      -2.75871476       0.77700972
C       -0.82260025       0.53824524      -1.70087028
C        0.15539975       1.51824524      -2.30787028
C       -2.29060025       0.91924524      -1.93587028
H       -0.63460025      -0.44975476      -2.11887028
H       -0.64660025       0.49724524      -0.63087028
H       -0.08060025       2.51724524      -1.94087028
H        0.05139975       1.50724524      -3.39287028
H       -2.50460025       1.83924524      -1.37987028
H       -2.44660025       1.11624524      -3.00287028
H        1.19279975       1.26969524      -2.03949028
H       -2.96294025       0.11631524      -1.59933028
