16
Properties=species:S:1:pos:R:3 pbc="F F F"
C        1.45152061       1.51690322       0.81762677
C        0.27852061       1.25390322       1.71262677
O       -0.76047939       1.88390322       1.56562677
N        0.41652061       0.29990322       2.64062677
H        1.47152061       0.76190322       0.03462677
H        2.36852061       1.40590322       1.39662677
H       -0.36647939       0.09590322       3.24062677
H        1.27152061      -0.23109678       2.70162677
H        1.44361061       2.52112322       0.36874677
C       -1.08047939      -2.28109678      -2.37737323
C       -0.30247939      -1.16109678      -1.67037323
O       -0.59147939      -0.93309678      -0.47437323
O        0.58452061      -0.51009678      -2.27337323
H       -2.14147939      -2.12509678      -2.18137323
H       -0.81247939      -3.24509678      -1.93937323
H       -0.97755939      -2.34587178      -3.47063323
