16
Properties=species:S:1:pos:R:3 pbc="F F F"
C       -1.65557770      -1.05678546      -0.76993789
C       -0.83057770      -2.27878546      -1.18693789
H       -2.70257770      -1.17778546      -1.03593789
H       -1.59957770      -0.93978546       0.31206211
H       -1.26057770      -0.15578546      -1.23993789
H       -1.31557770      -3.18078546      -0.81993789
H       -0.73928770      -2.33485346      -2.28170789
H        0.18443230      -2.24439046      -0.76436789
C        0.63842230       1.31821454       0.63406211
C        1.84142230       2.02521454       1.32206211
H       -0.13857770       2.04421454       0.39306211
H        0.97242230       0.83921454      -0.28393789
H        0.22642230       0.56121454       1.30306211
H        2.58842230       1.25921454       1.54106211
H        1.55908230       2.50459054       2.27100211
H        2.30059230       2.73130154       0.61453211
