19
Properties=species:S:1:pos:R:3 pbc="F F F"
C       -1.65684730       1.13994655       0.05052240
C       -2.43384730       2.22794655       0.79452240
H       -1.47084730       0.29494655       0.71352240
H       -2.23684730       0.80094655      -0.80747760
H       -0.70984730       1.54394655      -0.30747760
H       -2.63084730       3.04294655       0.10652240
H       -1.82653730       2.58472255       1.63944140
H       -3.39787730       1.83960855       1.15486540
C        0.98415270      -1.58705345      -0.34847760
C        1.69915270      -1.22305345       0.94852240
C        1.46715270      -0.67205345      -1.46347760
H        1.19015270      -2.62305345      -0.61647760
H       -0.08984730      -1.45105345      -0.24647760
H        1.47015270      -0.18405345       1.20052240
H        2.76615270      -1.29005345       0.76352240
H        1.28015270       0.36494655      -1.18247760
H        2.54315270      -0.81105345      -1.59647760
H        1.44603270      -1.85945845       1.80928740
H        0.95473270      -0.89176645      -2.41171260
