20
Properties=species:S:1:pos:R:3 pbc="F F F"
C        0.06216704       1.75543292      -2.29437504
C        0.35816704       1.15643292      -0.93637504
O       -0.50583296       1.14743292      -0.06737504
N        1.57116704       0.64543292      -0.74937504
H        0.82016704       2.50643292      -2.51937504
H       -0.90683296       2.25343292      -2.24537504
H        1.86016704       0.39243292       0.18262496
H        2.26416704       0.70743292      -1.48137504
H        0.05060704       0.99519292      -3.08929504
C        0.09316704      -1.54156708       1.26162496
C       -0.77183296      -2.60656708       0.60762496
N       -0.75183296      -0.49556708       1.92462496
H        0.72816704      -2.02956708       2.00862496
H        0.74316704      -1.10756708       0.50262496
H       -1.42983296      -2.12756708      -0.11937504
H       -1.38783296      -3.09056708       1.36862496
H       -1.46883296      -0.90556708       2.51062496
H       -0.18983296       0.10843292       2.51262496
H       -1.19283296       0.10643292       1.23262496
H       -0.16898296      -3.37257708       0.09791496
