19
Properties=species:S:1:pos:R:3 pbc="F F F"
C        1.57953866       0.39072460       3.27899980
C        0.77653866      -0.49527540       2.33499980
O       -0.39046134      -0.15527540       2.04599980
O        1.32053866      -1.52627540       1.87899980
H        2.28053866       0.96572460       2.67299980
H        2.16453866      -0.21227540       3.97399980
H        0.95039866       1.11654460       3.81506780
C       -0.66846134       2.28572460      -0.70200020
C       -0.59146134       0.97172460      -1.42600020
C       -0.61046134      -1.21327540      -1.68600020
C       -0.49846134       0.70972460      -2.75600020
N       -0.66046134      -0.24527540      -0.78000020
N       -0.51246134      -0.66127540      -2.89000020
H       -0.67446134      -2.27727540      -1.48400020
H       -0.18246134       3.04172460      -1.31400020
H       -0.10946134       2.20772460       0.22999980
H       -0.56946134      -1.17027540      -3.77100020
H       -0.47346134       1.44172460      -3.55200020
H       -1.69750134       2.60451260      -0.47964040
