31
Properties=species:S:1:pos:R:3 pbc="F F F"
C        4.65823103       0.48533225       2.89004797
C        1.16823103      -0.84866775       0.78004797
C        2.14823103      -0.15166775       0.11004797
C        1.34623103      -1.15166775       2.12004797
C        3.29723103       0.29033225       0.78504797
C        2.47723103      -0.72966775       2.77304797
C        3.46623103      -0.00266775       2.14404797
H        0.27423103      -1.16866775       0.26204797
H        2.03323103       0.06133225      -0.94195203
H        0.61523103      -1.72266775       2.65804797
H        4.05023103       0.85633225       0.25804797
H        2.58923103      -0.97166775       3.82104797
H        4.47423103       0.42133225       3.96404797
H        4.76823103       1.54133225       2.64804797
H        5.59896103      -0.03160175       2.64962797
C        0.09623103       1.82833225      -2.09895203
C       -1.09776897       0.98633225      -1.72395203
C       -1.57176897      -0.00866775      -2.58295203
C       -1.83376897       1.25133225      -0.55495203
C       -2.69676897      -0.75066775      -2.27995203
C       -2.98576897       0.51833225      -0.26395203
C       -3.41376897      -0.48266775      -1.11895203
O       -4.53976897      -1.19066775      -0.83595203
H        0.89123103       1.19333225      -2.48295203
H        0.46823103       2.32433225      -1.20095203
H       -1.03076897      -0.21466775      -3.49695203
H       -1.50976897       2.02933225       0.12604797
H       -3.02376897      -1.53366775      -2.95095203
H       -3.54576897       0.71733225       0.63704797
H       -4.70976897      -1.88366775      -1.48395203
H       -0.16014897       2.58046725      -2.85958203
