16
Properties=species:S:1:pos:R:3 pbc="F F F"
C       -1.66852028       0.91349764      -0.93570664
C       -1.43552028      -0.30750236      -1.81870664
H       -1.70452028       0.61149764       0.11229336
H       -0.86352028       1.63649764      -1.07770664
H       -2.61752028       1.37449764      -1.19670664
H       -0.46952028      -0.73950236      -1.56870664
H       -2.22747028      -1.04441836      -1.61928664
H       -1.41901028      -0.01598036      -2.87924664
C        0.89447972      -0.58950236       1.12029336
C        2.20947972      -0.01950236       1.63129336
H        1.03147972      -1.61350236       0.77229336
H        0.14247972      -0.56750236       1.91129336
H        0.56247972       0.03149764       0.29429336
H        2.03747972       1.00349764       1.94629336
H        2.96694972      -0.05252936       0.83433336
H        2.56165972      -0.58819336       2.50453336
