27
Properties=species:S:1:pos:R:3 pbc="F F F"
C       -2.08973868      -3.44134903      -2.93618898
C       -2.23873868      -2.78034903      -4.30118898
H       -1.13473868      -3.17534903      -2.48418898
H       -2.89273868      -3.11034903      -2.27618898
H       -2.15873868      -4.52634903      -3.01618898
H       -3.09873868      -3.20734903      -4.81318898
H       -1.33496168      -2.97365503      -4.89769898
H       -2.41623668      -1.70014503      -4.19323898
C       -0.92773868       2.22665097       2.90081102
C        0.08926132       0.76365097       1.02481102
C        0.18226132       1.75465097       2.04881102
C        1.38026132       0.62465097       0.45381102
C        1.47126132       2.18265097       2.05581102
C       -0.70373868      -0.90234903      -0.49018898
C        0.58026132      -1.01934903      -1.03818898
C       -0.95873868      -0.02034903       0.53381102
C        1.63626132      -0.25734903      -0.57818898
N        2.19726132       1.50565097       1.10381102
H       -1.50973868      -1.50934903      -0.87518898
H        0.74226132      -1.71434903      -1.84918898
H       -1.95173868       0.07265097       0.95181102
H        2.62526132      -0.33634903      -1.00318898
H       -0.52573868       2.57065097       3.85381102
H       -1.58073868       1.37765097       3.10881102
H        1.86226132       2.94965097       2.71181102
H        3.17726132       1.68565097       0.89581102
H       -1.51936968       3.02752097       2.43328102
