22
Properties=species:S:1:pos:R:3 pbc="F F F"
C       -0.41462325       0.06009053      -3.35972091
C        0.87137675      -0.27690947      -2.66272091
O        0.97237675      -0.19890947      -1.43972091
N        1.87637675      -0.64590947      -3.43772091
H       -1.24562325      -0.31990947      -2.76772091
H       -0.44062325      -0.42290947      -4.33772091
H        2.76137675      -0.86090947      -3.00372091
H        1.75537675      -0.72290947      -4.43472091
H       -0.52120625       1.14928053      -3.47068391
C       -0.72362325       1.93009053       3.18627909
C       -0.66862325      -0.20390947       1.93927909
N       -0.79262325      -0.79190947       0.77027909
N       -0.88062325       1.10309053       1.99127909
N       -0.31862325      -0.90690947       3.01227909
H       -0.72862325      -0.25090947      -0.07572091
H       -0.73762325      -1.79590947       0.69927909
H       -1.14762325       1.56209053       1.13427909
H       -0.21462325      -0.44090947       3.89827909
H       -0.15362325      -1.89790947       2.93927909
H        0.32937675       1.93109053       3.47727909
H       -1.31062325       1.52409053       4.01427909
H       -1.02762325       2.97134453       3.00358909
