19
Properties=species:S:1:pos:R:3 pbc="F F F"
C        2.94183644       0.60279658      -0.38043330
C        1.57483644       1.22279658      -0.14943330
O        0.92483644       0.88779658       0.86456670
O        1.15583644       2.03479658      -1.00643330
H        3.67783644       1.38179658      -0.57043330
H        2.87483644      -0.01420342      -1.27943330
H        3.27921644      -0.03239342       0.45185930
C       -1.35916356      -1.08320342      -0.04543330
C       -1.05716356      -2.47420342       0.55856670
C       -2.62516356      -1.10720342      -0.90843330
O       -1.49516356      -0.11020342       0.98256670
H       -0.52216356      -0.79120342      -0.68143330
H       -0.17816356      -2.38220342       1.19756670
H       -3.50716356      -1.31120342      -0.30243330
H       -2.75016356      -0.13220342      -1.37843330
H       -2.54316356      -1.85120342      -1.69943330
H       -0.61516356       0.33579658       1.01356670
H       -0.86146356      -3.19052642      -0.25296330
H       -1.89410356      -2.82196542       1.18194130
