32
Properties=species:S:1:pos:R:3 pbc="F F F"
C        1.02420989      -2.56799994      -1.64374577
C       -1.45179011      -0.27699994      -0.02274577
C       -0.60979011      -0.60599994      -1.11674577
C        0.06120989      -1.83099994      -0.78574577
C       -0.39479011      -2.19899994       0.43925423
C       -2.23979011       0.86500006      -0.00774577
C       -2.19179011       1.69400006      -1.11674577
C       -0.57879011       0.24900006      -2.22474577
C       -1.36879011       1.39400006      -2.21474577
N       -1.29879011      -1.27099994       0.90525423
H       -1.76279011      -1.32999994       1.80625423
H       -2.87379011       1.09400006       0.83825423
H       -0.08879011      -3.09499994       0.97225423
H       -2.79979011       2.59000006      -1.13874577
H       -0.00179011      -0.02299994      -3.09174577
H        1.65220989      -3.21199994      -1.02474577
H        1.66920989      -1.84199994      -2.13974577
H       -1.36279011       2.05900006      -3.06974577
H        0.50478189      -3.16966994      -2.40413577
C        1.83320989       1.99200006      -0.24074577
C        1.51720989       0.58500006       1.75925423
N        2.10120989       0.82700006       0.60225423
N        0.61320989       1.42200006       2.22625423
N        1.82920989      -0.49399994       2.44325423
H        2.80020989       0.16000006       0.29025423
H        0.33420989       2.21500006       1.67725423
H        0.15220989       1.23900006       3.10325423
H        2.46520989      -1.16399994       2.03725423
H        1.34720989      -0.71799994       3.29925423
H        0.95720989       2.56800006       0.05925423
H        1.62820989       1.62100006      -1.24574577
H        2.71460889       2.64687806      -0.30608577
