21
Properties=species:S:1:pos:R:3 pbc="F F F"
C        0.04496930       0.16174916       2.36266665
C        1.07296930       2.52274916       1.36766665
S        1.60896930       1.03874916       2.22966665
H       -0.44003070       0.10474916       1.39066665
H        0.22696930      -0.84225084       2.74066665
H       -0.61303070       0.70774916       3.03866665
H        0.40596930       2.22474916       0.55766665
H        1.92996930       3.00474916       0.90166665
H        0.54255930       3.24681916       2.00357665
C       -1.63803070      -2.52825084      -0.28833335
C        0.13096930      -0.75725084      -0.97733335
C       -1.04003070      -1.43225084      -1.12433335
C       -0.90903070       0.05874916      -2.73733335
N        0.18696930       0.16974916      -1.99533335
N       -1.67303070      -0.90625084      -2.23333335
H        0.87296930      -0.91625084      -0.20533335
H        0.92996930       0.85974916      -2.15233335
H       -2.63303070      -2.21525084       0.03266665
H       -1.02403070      -2.62225084       0.59666665
H       -1.14303070       0.66574916      -3.60533335
H       -1.71831070      -3.49444084      -0.80798335
