25
Properties=species:S:1:pos:R:3 pbc="F F F"
C        2.37668640       1.47264594       1.94451347
C        0.91868640      -0.51735406       1.25751347
C       -0.24331360       0.26764594      -0.49448653
C        1.39968640       0.73964594       1.06351347
C        0.67568640       1.26964594      -0.06848653
C       -1.11731360       0.45464594      -1.56948653
C       -1.07831360       1.67164594      -2.23648653
C        0.69668640       2.49464594      -0.75848653
C       -0.18231360       2.68564594      -1.83948653
N       -0.06231360      -0.80635406       0.33751347
H       -0.60931360      -1.66635406       0.34851347
H        1.19668640      -1.14735406       2.08951347
H       -1.80331360      -0.32535406      -1.86448653
H        2.34068640       1.04464594       2.93151347
H        2.04168640       2.50664594       2.04451347
H       -1.74631360       1.84564594      -3.07248653
H        1.38368640       3.27164594      -0.46248653
H       -0.17231360       3.62364594      -2.37448653
H        3.43056640       1.46905594       1.62935347
C       -1.21631360      -4.61435406       0.73151347
O       -1.62631360      -3.26935406       0.92851347
H       -2.58531360      -3.20835406       0.74351347
H       -0.97331360      -4.76535406      -0.32048653
H       -2.04231360      -5.27835406       0.98851347
H       -0.35266360      -4.86786406       1.36385347
