16
Properties=species:S:1:pos:R:3 pbc="F F F"
C        1.04142243      -0.89121222      -1.10946246
C        2.01642243      -1.56321222      -2.09146246
H        0.18242243      -1.53421222      -0.92446246
H        1.55142243      -0.69521222      -0.16446246
H        0.69142243       0.05378778      -1.52446246
H        2.46242243      -2.43021222      -1.60446246
H        1.47281243      -1.89774422      -2.98732246
H        2.82545243      -0.86305222      -2.34690246
C       -1.68357757       0.88478778       0.94953754
C       -1.38157757       1.56678778       2.25153754
H       -2.22357757       1.54978778       0.27553754
H       -0.74757757       0.61278778       0.46353754
H       -2.26857757      -0.02121222       1.11153754
H       -0.81457757       2.47178778       2.03253754
H       -2.29585557       1.86364078       2.78630754
H       -0.74868157       0.92379978       2.88082754
