16
Properties=species:S:1:pos:R:3 pbc="F F F"
C        0.22218261       1.57352299      -1.31009682
C        0.16318261       2.97652299      -1.90909682
O        0.04518261       1.63552299       0.08990318
H       -0.53781739       0.93152299      -1.75909682
H        1.20518261       1.14152299      -1.50909682
H        0.76118261       3.64052299      -1.28309682
H        0.33818261       0.76652299       0.46090318
H       -0.87307739       3.34376299      -1.94521682
H        0.61764261       2.96710299      -2.91078682
C       -0.08481739      -2.52747701      -0.30409682
C       -0.11681739      -1.53247701       0.84790318
O       -1.07981739      -1.58147701       1.64590318
O        0.81718261      -0.70547701       0.94990318
H        0.86218261      -2.44947701      -0.83509682
H       -0.87981739      -2.28147701      -1.01209682
H       -0.23152739      -3.56025101       0.04498318
