20
Properties=species:S:1:pos:R:3 pbc="F F F"
C       -1.37173905      -1.79965971      -0.41189168
C       -2.56573905      -2.51065971      -1.03989168
H       -0.51073905      -1.99465971      -1.04389168
H       -1.58273905      -0.73165971      -0.40089168
H       -1.19173905      -2.12465971       0.61310832
H       -3.42573905      -2.40165971      -0.38189168
H       -2.33481205      -3.57608971      -1.18665168
H       -2.79607505      -2.05287971      -2.01322168
C        1.59826095       0.25734029       0.82110832
C        2.00926095      -0.44765971      -0.44189168
C        0.36226095       2.20234029      -0.53489168
S       -0.00273905       1.08034029       0.80110832
H        1.58526095      -0.49565971       1.60110832
H        2.35126095       1.00234029       1.08310832
H        1.93026095       0.20434029      -1.30489168
H        1.33726095      -1.28065971      -0.57789168
H       -0.25573905       1.94034029      -1.38889168
H        0.14626095       3.18934029      -0.14389168
H        1.41626095       2.19034029      -0.80689168
H        3.03320095      -0.84381971      -0.37406168
