19
Properties=species:S:1:pos:R:3 pbc="F F F"
C       -0.44010421       2.02748074      -1.61032155
C        0.29889579       3.06448074      -0.75932155
H       -1.20410421       1.53448074      -1.00932155
H       -0.92210421       2.52148074      -2.45532155
H        0.26389579       1.28348074      -1.98432155
H       -0.45310421       3.79648074      -0.47532155
H        0.75373579       2.63177224       0.14393945
H        1.06308579       3.58070674      -1.35892655
C       -0.12910421      -1.26551926       0.37267845
C       -0.73810421      -1.24851926       1.75467845
N        0.88689579      -2.34351926       0.24767845
H       -0.92710421      -1.41451926      -0.36532155
H        0.33389579      -0.29151926       0.17367845
H        0.09189579      -1.22351926       2.43067845
H       -1.20510421      -2.22651926       1.90767845
H        0.49789579      -3.26351926       0.43867845
H        1.26089579      -2.37851926      -0.69632155
H        1.67989579      -2.20151926       0.86567845
H       -1.54186421      -0.50130526       1.82982945
