13
Properties=species:S:1:pos:R:3 pbc="F F F"
C       -2.45004688       1.76477564      -0.18674900
O       -1.72904688       0.60677564      -0.59274900
H       -1.43104688       0.75877564      -1.50074900
H       -3.41304688       1.78377564      -0.69674900
H       -2.61447188       1.72959564       0.90032100
H       -1.88372888       2.66439564      -0.46954900
C        0.31995312      -1.28022436       1.23625100
C        1.16595312      -0.60722436       0.16625100
O        1.33795312      -1.18022436      -0.93374900
O        1.67795312       0.50177564       0.43725100
H       -0.42204688      -0.59722436       1.62425100
H        0.98795312      -1.53522436       2.06125100
H       -0.16028788      -2.20476436       0.88326100
