16
Properties=species:S:1:pos:R:3 pbc="F F F"
C       -0.87573552      -1.75173398       0.18486297
C       -2.02173552      -1.66073398       1.18586297
H       -0.01273552      -1.19973398       0.55086297
H       -0.60173552      -2.79573398       0.03386297
H       -1.18173552      -1.33673398      -0.77313703
H       -2.90173552      -2.14173398       0.76086297
H       -2.22610952      -0.60659398       1.42465297
H       -1.77508152      -2.21173398       2.10540297
C        0.71926448       1.59526602      -0.48313703
C        2.17726448       1.82326602      -0.88713703
H        0.11926448       2.49026602      -0.63413703
H        0.31026448       0.77926602      -1.07813703
H        0.66126448       1.32026602       0.56586297
H        2.23626448       1.91926602      -1.97113703
H        2.57687348       2.73376602      -0.41670703
H        2.80642748       0.97717602      -0.57363703
