19
Properties=species:S:1:pos:R:3 pbc="F F F"
C        0.96055331      -0.71229746       0.34949896
C        1.38055331      -2.17129746       0.22749896
C        0.73055331      -0.23029746       1.78049896
H        1.70255331      -0.06729746      -0.12950104
H        0.05755331      -0.65529746      -0.20750104
H        0.64655331      -2.80429746       0.73749896
H        1.58555331      -0.46129746       2.41649896
H        0.64655331       0.85470254       1.73349896
H        2.36700731      -2.32161746       0.69043896
H        1.39281631      -2.47137746      -0.83071104
H       -0.18591849      -0.66225746       2.20885896
C       -1.67444669       0.96270254      -0.68650104
C       -1.32244669       2.09470254      -1.64250104
H       -1.54344669      -0.00429746      -1.16750104
H       -1.12144669       1.09270254       0.23749896
H       -2.73044669       1.04670254      -0.42150104
H       -1.85844669       2.99270254      -1.33550104
H       -1.60696769       1.83311554      -2.67236104
H       -0.24281129       2.30089854      -1.59925104
