30
Properties=species:S:1:pos:R:3 pbc="F F F"
C        1.04264242       1.86605570      -1.82960081
C       -0.83235758       1.73605570      -0.13660081
C        0.00064242       2.51205570      -0.94660081
C       -1.78335758       2.34005570       0.69039919
C       -0.13635758       3.90205570      -0.92060081
C       -1.91235758       3.72905570       0.70739919
C       -1.09135758       4.51105570      -0.10160081
H       -0.76235758       0.66305570      -0.17960081
H       -2.41835758       1.73305570       1.32039919
H        1.36264242       0.92605570      -1.37860081
H        1.92164242       2.51105570      -1.85760081
H        0.50464242       4.52005570      -1.53360081
H       -2.64235758       4.20005570       1.35139919
H       -1.18735758       5.58905570      -0.09160081
H        0.70814642       1.67664570      -2.86024981
C        1.73864242      -4.85194430      -0.64660081
C       -0.19235758      -1.46794430       1.18039919
C        1.11664242      -1.35194430       0.71139919
C       -0.87135758      -2.67294430       1.05039919
C        1.74164242      -2.44594430       0.11139919
C       -0.24235758      -3.76694430       0.45839919
C        1.06964242      -3.66494430      -0.00860081
H       -0.68335758      -0.62594430       1.64439919
H        1.64564242      -0.41394430       0.80439919
H       -1.89235758      -2.74094430       1.38339919
H        2.75064242      -2.34394430      -0.26160081
H       -0.78735758      -4.69394430       0.34839919
H        2.34564242      -4.51094430      -1.48660081
H        0.96564242      -5.50394430      -1.05360081
H        2.36324942      -5.43926430       0.04254719
