31
Properties=species:S:1:pos:R:3 pbc="F F F"
C        1.80378515       4.20300343       0.73539935
C        1.75478515       0.45700343       1.36839935
C        2.36878515      -0.02699657       0.21939935
C        1.57578515       1.82700343       1.53539935
C        2.01678515       2.72200343       0.56539935
C        2.80078515       0.85600343      -0.76260065
C        2.61978515       2.22300343      -0.58960065
O        2.54278515      -1.36599657       0.05339935
H        1.39178515      -0.24199657       2.09839935
H        1.09478515       2.19600343       2.43039935
H        3.27278515       0.47800343      -1.65760065
H        2.85178515      -1.56799657      -0.85760065
H        2.56578515       4.73400343       0.16339935
H        1.93178515       4.48100343       1.78339935
H        2.96078515       2.90400343      -1.35960065
H        0.81276115       4.52206343       0.38032935
C       -2.42221485      -0.77899657      -2.75660065
C       -1.60121485      -1.37699657       0.90039935
C       -1.51721485      -0.93899657      -0.41660065
C       -2.68721485      -2.13799657       1.31039935
C       -2.51621485      -1.25999657      -1.33360065
C       -3.68821485      -2.45999657       0.40339935
C       -3.60121485      -2.02099657      -0.91360065
H       -0.81821485      -1.13299657       1.60139935
H       -0.67121485      -0.34099657      -0.72560065
H       -2.75221485      -2.47899657       2.33539935
H       -4.53921485      -3.04399657       0.72539935
H       -2.16921485       0.28200343      -2.72560065
H       -3.39221485      -0.86799657      -3.24860065
H       -4.38821485      -2.27499657      -1.60860065
H       -1.65562385      -1.30202657      -3.34717065
