14
Properties=species:S:1:pos:R:3 pbc="F F F"
C        0.45329576       1.45090691      -1.91663614
O        0.77129576       1.10690691      -0.57363614
H        0.82129576       1.93890691      -0.04163614
H        0.41829576       2.53590691      -2.00163614
H        1.23637576       1.05280491      -2.57868014
H       -0.53490424       1.03915691      -2.16946514
C       -0.62970424      -2.09309309       1.18236386
N       -0.60070424      -0.60009309       1.24536386
H       -0.20470424      -0.18309309       0.40336386
H       -1.53470424      -0.22909309       1.38336386
H       -0.03570424      -0.28509309       2.02736386
H       -1.35070424      -2.43009309       0.42836386
H       -0.96170424      -2.49009309       2.14836386
H        0.35374576      -2.52728809       0.94934586
