24
Properties=species:S:1:pos:R:3 pbc="F F F"
C       -2.22809801       1.06561440      -2.91753858
C       -1.30909801       0.10761440      -3.72353858
H       -3.18809801       0.58561440      -2.71853858
H       -1.77609801       1.34061440      -1.96853858
H       -2.40309801       1.97761440      -3.48953858
H       -1.27709801      -0.84438560      -3.19653858
H       -1.72972201      -0.08305560      -4.72189858
H       -0.27755001       0.48762440      -3.76232858
C        1.32890199       2.53261440       1.74846142
C       -0.24709801      -0.34138560      -0.19753858
C        0.12590199       0.95561440       0.19246142
C        0.14590199      -1.44438560       0.53346142
C        0.88990199       1.15461440       1.33946142
C        0.86490199      -1.25238560       1.71846142
C        1.23190199       0.03261440       2.11146142
O       -0.28209801      -2.66738560       0.09846142
H       -0.84509801      -0.48738560      -1.07553858
H       -0.17009801       1.80361440      -0.40853858
H       -0.82909801      -2.60638560      -0.68753858
H        1.14190199      -2.11038560       2.30846142
H        2.10090199       2.85361440       1.05346142
H        1.79590199       2.45061440       2.72146142
H        1.80690199       0.16261440       3.01946142
H        0.55812499       3.31712440       1.76943142
