16
Properties=species:S:1:pos:R:3 pbc="F F F"
C        1.51714270      -2.37804201       0.86965991
C        0.12514270      -2.12104201       1.34965991
O       -0.60885730      -3.04704201       1.69265991
N       -0.26485730      -0.86504201       1.35965991
H       -1.18185730      -0.63004201       1.69465991
H        0.38314270      -0.13404201       1.08565991
H        1.95914270      -1.47104201       0.45465991
H        1.43514270      -3.11504201       0.07165991
H        2.14974270      -2.78627201       1.67162991
C       -0.48785730       3.24995799      -2.11734009
C       -0.15885730       2.01595799      -1.27734009
O       -1.02285730       1.64195799      -0.44334009
O        0.93014270       1.42295799      -1.43534009
H       -0.36685730       4.14195799      -1.49934009
H       -1.54485730       3.20795799      -2.39034009
H        0.11928270       3.38598799      -3.02446709
