26
Properties=species:S:1:pos:R:3 pbc="F F F"
C       -1.85417452      -0.24490194      -1.80523468
C       -3.13917452      -1.09490194      -1.74223468
C       -1.47117452       0.38309806      -3.14523468
H       -1.92117452       0.55009806      -1.06323468
H       -1.02517452      -0.89190194      -1.51623468
H       -3.19917452      -1.72590194      -2.63223468
H       -1.38217452      -0.40290194      -3.89423468
H       -4.01476452      -0.43596694      -1.64660468
H       -3.08770452      -1.72482494      -0.84193468
H       -2.24361452       1.09304406      -3.47586468
H       -0.48074452       0.84359706      -3.01487468
C       -0.57017452       0.81409806       1.66876532
C       -0.72117452       0.20909806       3.07076532
C        0.69382548       0.40009806       0.97376532
C        1.80982548       1.12009806       0.67976532
C        2.13982548      -0.93490194      -0.00923468
N        0.93082548      -0.88090194       0.53976532
N        2.70182548       0.26509806       0.06176532
H       -1.42717452       0.52709806       1.06776532
H       -0.56817452       1.90309806       1.74176532
H        0.16482548       0.46909806       3.65276532
H        1.96882548       2.16509806       0.91276532
H        2.61182548      -1.82990194      -0.37423468
H        3.65182548       0.48009806      -0.21923468
H       -0.84815452      -0.88335994       3.05047932
H       -1.59168452       0.65418706       3.57485932
