19
Properties=species:S:1:pos:R:3 pbc="F F F"
C       -0.65079135      -1.11252009      -1.32940494
C       -2.00879135      -0.42752009      -1.53440494
C       -0.52579135      -1.79252009       0.04459506
H       -0.47179135      -1.84752009      -2.11140494
H        0.13820865      -0.36452009      -1.39040494
H       -2.19479135       0.25447991      -0.70140494
H       -1.06879135      -2.73652009       0.06259506
H        0.52320865      -2.00952009       0.24359506
H       -0.89879135      -1.13352009       0.82959506
H       -2.02515135       0.13857182      -2.47741494
H       -2.78371135      -1.20821009      -1.53945494
C        1.18820865       1.55347991       0.71059506
C        1.95020865       1.71047991       2.01759506
H        1.73320865       0.89747991       0.03059506
H        0.20920865       1.11947991       0.91559506
H        1.02820865       2.51047991       0.22359506
H        1.36920865       2.31647991       2.71159506
H        2.93127865       2.17549891       1.84078506
H        2.07001865       0.70476111       2.44675506
