16
Properties=species:S:1:pos:R:3 pbc="F F F"
C        0.16060193      -1.64202378      -0.16078594
C        0.59660193      -2.77702378       0.73221406
H        0.42360193      -1.83802378      -1.19978594
H       -0.91739807      -1.50002378      -0.08478594
H        0.68260193      -0.76302378       0.19421406
H        0.28560193      -3.72502378       0.29321406
H        0.07260193      -2.65702378       1.68121406
H        1.68068193      -2.78130378       0.91860806
C        0.16060193       1.69097622      -0.20278594
C       -0.91239807       2.72597622      -0.37878594
H        1.12560193       2.13897622      -0.43478594
H        0.16860193       1.33297622       0.82421406
H       -0.03239807       0.88297622      -0.90378594
H       -0.56739807       3.66497622       0.04521406
H       -1.76439807       2.40297622       0.21221406
H       -1.22213807       2.86650622      -1.42487894
