20
Properties=species:S:1:pos:R:3 pbc="F F F"
C       -1.44534499       0.35838500      -2.25212191
C       -2.28934499       0.08338500      -3.49812191
H       -0.83234499      -0.50161500      -1.99612191
H       -0.78334499       1.19838500      -2.45112191
H       -2.08334499       0.62038500      -1.41412191
H       -1.60134499      -0.18661500      -4.29712191
H       -3.00266499      -0.74237500      -3.35918291
H       -2.83837499       0.98121500      -3.81821291
C        1.99365501      -0.66361500      -0.63112191
C        1.12465501      -0.21661500       0.50887809
C        0.99365501       0.99338500       1.11687809
C       -0.36934499      -0.41461500       2.11187809
N        0.25465501      -1.07961500       1.14287809
N        0.05765501       0.84238500       2.11087809
H        1.42665501      -1.35561500      -1.24012191
H        2.84965501      -1.20761500      -0.23112191
H        1.50265501       1.90438500       0.86787809
H       -1.12034499      -0.82161500       2.78087809
H       -0.28134499       1.58138500       2.73187809
H        2.32984501       0.15431500      -1.28531691
