31
Properties=species:S:1:pos:R:3 pbc="F F F"
C        5.01480019       0.39418777      -1.80438101
C        0.78280019       0.69718777      -1.03538101
C        1.24180019       0.41718777      -2.32238101
C        1.69580019       0.88118777       0.00161899
C        2.61480019       0.32518777      -2.57038101
C        3.06480019       0.78418777      -0.25038101
C        3.53680019       0.50918777      -1.53838101
H       -0.27919981       0.77118777      -0.84138101
H        0.53480019       0.26918777      -3.12738101
H        1.32980019       1.07618777       0.99761899
H        2.95980019       0.10618777      -3.56938101
H        3.73080019       0.88718777       0.59061899
H        5.22680019       0.58318777      -2.85338101
H        5.29880019      -0.64081223      -1.60538101
H        5.63222019       1.04543777      -1.16825101
C        0.01980019      -1.53881223       2.75261899
C       -2.42419981      -0.97181223      -0.11638101
C       -3.28019981      -0.01181223       0.41861899
C       -1.34419981      -1.43781223       0.63461899
C       -1.10419981      -0.95681223       1.92561899
C       -3.05119981       0.48518777       1.70361899
C       -1.96419981       0.01118777       2.45061899
O       -4.34419981       0.41818777      -0.31838101
H       -2.60319981      -1.35581223      -1.10938101
H       -0.68919981      -2.18881223       0.21261899
H       -3.71219981       1.23218777       2.11461899
H       -4.85719981       1.10818777       0.16961899
H        0.26080019      -0.87981223       3.58761899
H        0.90180019      -1.60281223       2.11761899
H       -1.78519981       0.40818777       3.43761899
H       -0.23157981      -2.54287223       3.12499899
