23
Properties=species:S:1:pos:R:3 pbc="F F F"
C        0.38143240       0.88449577      -2.47073317
C       -0.14056760      -0.50250423      -0.43473317
C        0.80643240       0.11249577      -1.25773317
C        0.25143240      -1.14750423       0.74826683
C        1.61443240      -1.18050423       1.11226683
C        2.17143240       0.06449577      -0.90573317
C        2.57143240      -0.57550423       0.27626683
H       -1.18756760      -0.46150423      -0.69473317
H       -0.48656760      -1.59750423       1.39426683
H       -0.70556760       0.86949577      -2.57073317
H        0.80543240       0.39149577      -3.33973317
H        1.92343240      -1.67450423       2.02326683
H        2.92043240       0.51449577      -1.53973317
H        3.61843240      -0.61350423       0.54026683
H        0.73411240       1.92596577      -2.43978417
C       -2.68456760       1.34349577       1.52326683
C       -3.94456760       0.57249577       1.26026683
H       -2.82956760       2.08949577       2.30126683
H       -1.90456760       0.65449577       1.84626683
H       -2.35656760       1.83549577       0.60926683
H       -3.73656760      -0.21550423       0.54126683
H       -4.73408760       1.24221577       0.88860123
H       -4.29688760       0.14568577       2.21089983
