21
Properties=species:S:1:pos:R:3 pbc="F F F"
C       -1.88889161      -1.76377936      -0.58029399
C       -2.58389161      -1.31477936      -1.86429399
H       -2.06289161      -2.82477936      -0.39829399
H       -0.81489161      -1.60477936      -0.67629399
H       -2.25289161      -1.18277936       0.26970601
H       -2.27089161      -0.29577936      -2.09329399
H       -3.67668161      -1.32186936      -1.73877499
H       -2.27824161      -1.97006936      -2.69325099
C       -0.45689161       1.90922064       1.13370601
C        1.24010839       0.31122064       0.32870601
N        0.34210839       1.25422064       0.09170601
N        1.46210839      -0.09277936       1.56370601
N        1.91210839      -0.22977936      -0.66529399
H        0.18310839       1.51622064      -0.87529399
H        1.00110839       0.37822064       2.32370601
H        2.07210839      -0.87977936       1.73270601
H        1.81610839       0.13022064      -1.60429399
H        2.58210839      -0.96477936      -0.49729399
H        0.19810839       2.50522064       1.74470601
H       -0.99289161       1.16822064       1.73270601
H       -1.18103161       2.62534064       0.71803401
