23
Properties=species:S:1:pos:R:3 pbc="F F F"
C       -0.39606060      -2.91736760      -2.43678438
C       -0.16306060       0.75363240      -0.12478438
C        0.51093940       0.67363240      -1.35778438
C       -0.87006060      -0.33236760       0.34921562
C        0.45993940      -0.53036760      -2.10978438
C       -0.92106060      -1.51536760      -0.39878438
C       -0.26606060      -1.63136760      -1.62478438
H       -0.13606060       1.66263240       0.45921562
H        1.05193940       1.53763240      -1.71578438
H       -1.38006060      -0.25736760       1.29821562
H        0.97393940      -0.60736760      -3.05978438
H       -1.48006060      -2.36236760      -0.02478438
H       -0.56406060      -2.61736760      -3.46878438
H       -1.28606060      -3.43936760      -2.07778438
H        0.44909940      -3.61746760      -2.36175438
C        0.86793940       1.78463240       3.25421562
C        0.60193940       3.25663240       3.63321562
H        0.02093940       1.38563240       2.69621562
H        1.76693940       1.71963240       2.63921562
H        1.01193940       1.18863240       4.15821562
H        1.45193940       3.63963240       4.19421562
H       -0.29757060       3.35343240       4.25892562
H        0.50887940       3.87513240       2.72835562
