16
Properties=species:S:1:pos:R:3 pbc="F F F"
C        1.86954297      -1.23081172      -2.29315597
C        0.54854297      -0.46081172      -2.31315597
O       -0.21345703      -0.49981172      -1.31715597
O        0.27454297       0.20718828      -3.33215597
H        2.49854297      -0.90981172      -3.12615597
H        1.65754297      -2.29281172      -2.42015597
H        2.41694297      -1.09900172      -1.34817697
C       -0.48345703       1.37318828       3.45084403
C       -0.66845703       0.43718828       2.28784403
O       -1.69945703      -0.21581172       2.15784403
N        0.31154297       0.38918828       1.40884403
H        0.13654297      -0.09281172       0.52684403
H        1.17654297       0.88018828       1.58284403
H        0.56354297       1.66918828       3.53184403
H       -0.73945703       0.82718828       4.36084403
H       -1.12237703       2.26464828       3.36666303
