16
Properties=species:S:1:pos:R:3 pbc="F F F"
C       -1.17826288      -1.03567927       0.32126669
C       -2.61826288      -1.59867927       0.41026669
H       -1.04326288      -0.48667927      -0.60773331
H       -1.00926288      -0.35867927       1.15726669
H       -0.44226288      -1.83367927       0.37226669
H       -2.75626288      -2.10167927       1.36726669
H       -2.83229288      -2.29572927      -0.41332331
H       -3.32226288      -0.75502927       0.35889669
C        1.30173712       1.72132073      -0.22473331
C        2.49973712       0.91332073      -0.50073331
H        1.55873712       2.77732073      -0.15073331
H        0.59373712       1.59332073      -1.04273331
H        0.83673712       1.39432073       0.70626669
H        2.95873712       1.27832073      -1.42173331
H        2.13773712      -0.09767927      -0.69073331
H        3.26095712       0.88250073       0.29273669
