24
Properties=species:S:1:pos:R:3 pbc="F F F"
C       -1.64300636       2.57562344      -0.68492891
C       -3.12400636       2.93162344      -0.82392891
H       -1.53000636       1.49362344      -0.68292891
H       -1.08500636       2.97262344      -1.52892891
H       -1.21200636       2.97562344       0.22507109
H       -3.22100636       4.01762344      -0.81492891
H       -3.68964636       2.49772344       0.01379109
H       -3.52977636       2.57388344      -1.78172891
C        2.67199364      -1.95437656      -1.52992891
C       -0.27700636      -0.21937656       1.03107109
C        0.99199364       0.33262344       0.97307109
C       -0.59500636      -1.31137656       0.23807109
C        1.93199364      -0.21137656       0.11807109
C        0.36599364      -1.87937656      -0.57492891
C        1.62699364      -1.31937656      -0.66392891
O       -1.23200636       0.27762344       1.86107109
H        1.24399364       1.17762344       1.59507109
H       -0.91000636       1.03262344       2.37907109
H       -1.58300636      -1.73737656       0.29707109
H        2.92199364       0.22262344       0.06907109
H        0.13199364      -2.75737656      -1.15992891
H        3.31899364      -1.17037656      -1.91392891
H        2.17999364      -2.42537656      -2.38292891
H        3.28304364      -2.70423856      -1.00616891
