16
Properties=species:S:1:pos:R:3 pbc="F F F"
C        1.93758872      -1.33574302      -0.04564709
C        2.12958872      -0.51174302       1.23235291
H        1.19558872      -0.85874302      -0.68564709
H        1.59058872      -2.33774302       0.20435291
H        2.88058872      -1.40774302      -0.59064709
H        1.16458872      -0.45774302       1.73335291
H        2.84893872      -1.01658602       1.89392291
H        2.43939872       0.51208498       0.97585291
C       -1.33841128       0.67225698      -0.37064709
C       -2.72441128       1.18025698      -0.81564709
H       -1.17041128       0.89225698       0.68435291
H       -0.55541128       1.13825698      -0.97064709
H       -1.29241128      -0.40974302      -0.49864709
H       -3.46641128       0.73825698      -0.15564709
H       -2.77375828       2.27662698      -0.74126709
H       -2.91318028       0.87090698      -1.85423709
