30
Properties=species:S:1:pos:R:3 pbc="F F F"
C       -1.78983928      -0.98717273      -2.42457442
C        0.56816072      -0.42717273      -1.56257442
C       -0.78583928      -0.24617273      -1.58057442
C        0.17916072       1.18182727      -0.05357442
C       -1.06183928       0.78782727      -0.61857442
C        0.27316072       2.16282727       0.92042558
C       -2.23083928       1.41682727      -0.17357442
C       -0.89583928       2.77382727       1.33442558
C       -2.13483928       2.40682727       0.79942558
N        1.14716072       0.42482727      -0.65457442
H        1.10516072      -1.13917273      -2.18057442
H        2.14916072       0.45782727      -0.46957442
H       -2.54883928      -1.41717273      -1.77057442
H       -1.26783928      -1.81717273      -2.90157442
H        1.22916072       2.44282727       1.33842558
H       -3.18383928       1.15082727      -0.60057442
H       -0.85183928       3.54782727       2.09042558
H       -3.03083928       2.90482727       1.14642558
H       -2.28694128      -0.38032173      -3.19569142
C        1.83516072      -2.30417273       1.57142558
C        3.19216072      -2.39417273       0.88742558
C        0.91016072      -3.49417273       1.37642558
H        1.98716072      -2.15517273       2.64242558
H        1.33016072      -1.41617273       1.19442558
H        3.04516072      -2.65817273      -0.15557442
H        1.28416072      -4.36017273       1.90842558
H        3.82089072      -3.15677673       1.37025788
H        3.65343072      -1.39559173       0.89539058
H       -0.06401928      -3.20760773       1.79934618
H        0.81813072      -3.75313873       0.31131158
