27
Properties=species:S:1:pos:R:3 pbc="F F F"
C        0.02822234      -1.79920995      -2.87097440
C       -0.21777766      -0.72620995       0.72602560
C        0.49422234      -0.76220995      -0.48397440
C       -0.29277766      -1.49720995      -1.42697440
C       -1.40177766      -1.87020995      -0.77197440
C        1.45322234       0.56479005       1.73502560
C        0.23622234      -0.05520995       1.84102560
C        2.18322234       0.55279005       0.55202560
C        1.70522234      -0.07320995      -0.56697440
N       -1.36677766      -1.41320995       0.51002560
H        1.84922234       1.09979005       2.58802560
H       -0.35277766       0.03079005       2.74002560
H        3.13222234       1.06679005       0.50902560
H        2.25522234      -0.04820995      -1.49397440
H       -2.13577766      -1.51420995       1.16302560
H       -2.22277766      -2.43020995      -1.21197440
H        0.40822234      -0.89320995      -3.34397440
H       -0.90177766      -2.03520995      -3.37997440
H        0.74363434      -2.62380095      -3.00601200
C       -0.47377766       3.33679005       0.10302560
C       -1.78777766       3.00179005       0.79702560
H        0.12722234       3.99879005       0.72502560
H        0.09322234       2.42279005      -0.07197440
H       -0.66777766       3.81979005      -0.85597440
H       -1.56177766       2.53979005       1.75902560
H       -2.37791466       3.91414105       0.96835560
H       -2.35077366       2.27434735       0.19381560
