16
Properties=species:S:1:pos:R:3 pbc="F F F"
C        1.27436136      -0.81689718      -0.98027850
C        1.78836136       0.05910282      -2.11827850
H        0.28036136      -1.20889718      -1.18427850
H        1.93836136      -1.67589718      -0.88027850
H        1.31036136      -0.26389718      -0.04227850
H        1.85236136      -0.56289718      -3.00627850
H        1.08748136       0.88983282      -2.28758050
H        2.79565136       0.43881282      -1.89203450
C       -1.44163864       0.70510282       0.86372150
C       -1.61963864       0.06110282       2.23972150
H       -0.74663864       0.13710282       0.26972150
H       -2.40263864       0.68710282       0.34772150
H       -1.11963864       1.74210282       0.92272150
H       -2.40263864       0.59510282       2.77872150
H       -0.68463864       0.10728282       2.81734150
H       -1.92560864      -0.98597718       2.09828150
