27
Properties=species:S:1:pos:R:3 pbc="F F F"
C       -1.49840108      -3.95949776      -0.96448174
C       -1.40640108      -4.54249776      -2.37848174
H       -0.64640108      -3.30749776      -0.77348174
H       -2.41740108      -3.38449776      -0.85348174
H       -1.52140108      -4.74149776      -0.20848174
H       -2.26640108      -5.19049776      -2.55348174
H       -0.48557108      -5.13445776      -2.48643174
H       -1.41284108      -3.73074776      -3.12079174
C       -2.58840108       1.05950224       0.94251826
C       -1.08740108      -0.26449776      -0.66948174
C       -1.28440108       0.65250224       0.32051826
C        0.96159892       0.52150224      -0.19048174
C        0.01559892       1.17350224       0.64951826
C        2.32759892       0.79650224      -0.13248174
C        0.47959892       2.12750224       1.57051826
C        2.75959892       1.74350224       0.78251826
C        1.84959892       2.40450224       1.62851826
N        0.25259892      -0.34549776      -0.98148174
H       -1.86740108      -0.83449776      -1.15748174
H        0.64659892      -0.90749776      -1.73248174
H       -2.62140108       2.14850224       0.97251826
H       -2.56940108       0.72450224       1.97051826
H        3.02359892       0.29050224      -0.78248174
H       -0.21740108       2.63850224       2.21851826
H        3.81159892       1.98950224       0.82751826
H        2.21759892       3.14450224       2.32651826
H       -3.48233108       0.69027224       0.41853826
