19
Properties=species:S:1:pos:R:3 pbc="F F F"
C        0.14998519      -1.42604686       0.55613934
C        1.14398519      -1.69004686      -0.56686066
C       -1.09101481      -2.23904686       0.19013934
H       -0.06401481      -0.36504686       0.65113934
H        0.54698519      -1.79604686       1.49713934
H        0.90098519      -1.07204686      -1.43086066
H        2.16998519      -1.52004686      -0.24686066
H       -1.49401481      -2.69704686       1.09413934
H        0.95207519      -2.75286686      -0.77562066
H       -0.69710481      -3.01627686      -0.48124066
H       -1.87252481      -1.61992686      -0.27456066
C        0.19798519       2.24995314      -0.65686066
C       -0.39401481       3.01995314       0.51113934
H        0.30798519       2.89895314      -1.52586066
H        1.19198519       1.88895314      -0.38686066
H       -0.43301481       1.39795314      -0.91586066
H        0.17998519       3.93395314       0.63913934
H       -1.44347481       3.26924314       0.29551934
H       -0.32836481       2.46587314       1.45912934
