23
Properties=species:S:1:pos:R:3 pbc="F F F"
C        0.86216234       2.30552784       1.92527959
C       -0.85083766       0.09452784      -1.36172041
C       -1.66783766       0.59952784      -0.36672041
C        0.52016234       0.29952784      -1.29772041
C       -1.11283766       1.32452784       0.68827959
C        1.07816234       1.01752784      -0.23472041
C        0.26516234       1.53052784       0.77027959
H       -1.27883766      -0.46447216      -2.18372041
H       -2.73083766       0.42452784      -0.40972041
H        1.15916234      -0.09747216      -2.07472041
H       -1.76483766       1.72952784       1.44327959
H        2.14816234       1.16352784      -0.19572041
H        0.21116234       3.15652784       2.13127959
H        1.81616234       2.71652784       1.63327959
H        0.98733234       1.72733884       2.85265959
C       -0.24583766      -3.43847216      -0.58372041
C        0.93416234      -2.98947216       0.27327959
H       -1.18083766      -3.18747216      -0.08872041
H       -0.22083766      -2.92747216      -1.54672041
H       -0.20383766      -4.51547216      -0.74872041
H        0.86416234      -1.91247216       0.42027959
H        0.91003234      -3.47987216       1.25761959
H        1.87597234      -3.19556216      -0.25636041
