16
Properties=species:S:1:pos:R:3 pbc="F F F"
C        1.20367419      -1.13245987      -0.17413008
C        2.26267419      -2.15245987      -0.57913008
H        0.26967419      -1.63645987       0.07386992
H        1.54167419      -0.56545987       0.69386992
H        1.03167419      -0.43845987      -0.99613008
H        3.13767419      -1.60345987      -0.93213008
H        1.87482419      -2.78327387      -1.39254808
H        2.57082419      -2.75007987       0.29144192
C       -1.17332581       1.12554013       0.30986992
C       -2.29632581       2.15654013       0.44086992
H       -0.28932581       1.56354013      -0.14613008
H       -0.90032581       0.75754013       1.29886992
H       -1.50832581       0.28754013      -0.30313008
H       -1.96232581       2.95054013       1.10786992
H       -2.54423581       2.57827313      -0.54436208
H       -3.18244581       1.67359413       0.87853992
