22
Properties=species:S:1:pos:R:3 pbc="F F F"
C       -1.12881127      -0.31599536      -0.33837179
C       -1.38881127       0.30500464      -1.71937179
C       -1.63381127       0.64600464       0.75062821
C       -1.83481127      -1.67199536      -0.23037179
H       -0.05981127      -0.47399536      -0.21137179
H       -2.45281127       0.52100464      -1.83537179
H       -2.70681127       0.81500464       0.64562821
H       -1.43781127       0.23500464       1.74062821
H       -1.11081127       1.60100464       0.70262821
H       -2.91581127      -1.52799536      -0.27637179
H       -1.54381127      -2.30899536      -1.06437179
H       -1.03425127      -0.35728536      -2.52289179
H       -0.80530127       1.23104464      -1.82878179
H       -1.58731127      -2.23689536       0.68046621
C        2.62318873      -0.15999536       0.56362821
C        3.21218873       1.15900464       0.92762821
H        3.38018873      -0.93999536       0.62962821
H        1.84218873      -0.40299536       1.28662821
H        2.17818873      -0.16599536      -0.42937179
H        2.40718873       1.88600464       1.03262821
H        3.88547873       1.48573464       0.12144521
H        3.75899873       1.09181464       1.87972221
