19
Properties=species:S:1:pos:R:3 pbc="F F F"
C       -1.25276507       0.94495677       0.42171855
C       -2.62976507       1.53695677       0.76071855
C       -0.36976507       1.98395677      -0.27328145
O       -0.61076507       0.49295677       1.60671855
H       -1.38476507       0.10295677      -0.25028145
H       -3.06576507       1.86895677      -0.18128145
H       -0.13176507       2.80495677       0.40071855
H        0.55723493       1.51995677      -0.60328145
H       -0.89576507       2.37995677      -1.14128145
H       -0.10776507      -0.29904323       1.31671855
H       -2.53958807       2.38161477       1.45959015
H       -3.31515007       0.76625977       1.14317515
C        2.53423493      -0.65204323      -0.61428145
C        1.14223493      -1.27404323      -0.67028145
O        0.56423493      -1.43604323      -1.76928145
O        0.61923493      -1.59304323       0.41971855
H        3.22823493      -1.44604323      -0.37228145
H        2.58223493       0.09595677       0.18071855
H        2.84422240      -0.18525523      -1.56086345
