16
Properties=species:S:1:pos:R:3 pbc="F F F"
C        0.54216202      -1.37731170      -1.26745679
C        0.47816202      -2.90731170      -1.10745679
O        1.77516202      -0.96631170      -1.87545679
H       -0.29283798      -1.05031170      -1.88945679
H        0.45216202      -0.90331170      -0.29145679
H        0.53916202      -3.36931170      -2.09245679
H        1.69616202      -0.03031170      -2.11645679
H       -0.47007798      -3.17046070      -0.61594279
H        1.32922202      -3.22747070      -0.48843449
C       -0.49883798       0.42568830       2.21254321
C       -0.78183798       1.37768830       1.05654321
O       -1.92683798       1.66268830       0.68054321
O        0.21916202       1.86968830       0.52254321
H        0.13016202       0.94468830       2.93854321
H        0.05416202      -0.43831170       1.84354321
H       -1.40698798       0.08188830       2.72932421
