22
Properties=species:S:1:pos:R:3 pbc="F F F"
C        2.26900978       0.99935313       0.47880129
C        3.38200978       1.70135313      -0.35619871
H        2.20500978      -0.05464687       0.21180129
H        2.51400978       1.06835313       1.53980129
H        1.31100978       1.48935313       0.30080129
H        4.31600978       1.17035313      -0.18619871
H        3.15011478       1.72497213      -1.43121771
H        3.52107218       2.73925113      -0.01940671
C       -1.20099022      -0.58064687       0.17680129
C       -2.19999022       0.57735313       0.03480129
C       -1.80499022      -1.82664687       0.87780129
C       -0.61499022      -0.95264687      -1.18419871
H       -0.36999022      -0.23964687       0.79080129
H       -3.11299022       0.17735313      -0.40919871
H       -1.79099022       1.30735313      -0.66519871
H       -2.59199022      -2.24164687       0.25080129
H       -1.03099022      -2.57964687       1.01680129
H       -2.21199022      -1.56264687       1.84680129
H       -0.14299022      -0.08064687      -1.63719871
H        0.13000978      -1.73764687      -1.06419871
H       -1.40999022      -1.30864687      -1.84119871
H       -2.46034822       1.10385613       0.96485929
