38
Properties=species:S:1:pos:R:3 pbc="F F F"
C        0.77413207      -1.77768213      -1.34733260
C        2.24513207      -2.17168213      -1.25933260
C       -0.05686793      -2.05768213      -0.11233260
C       -0.89486793      -3.16868213      -0.06333260
C       -0.07786793      -1.15668213       0.96766740
C       -1.71086793      -3.40268213       1.03666740
C       -0.89886793      -1.39468213       2.09466740
C       -1.71786793      -2.51668213       2.10866740
O       -2.54986793      -2.75368213       3.16066740
H        0.71013207      -0.71168213      -1.54633260
H        0.32713207      -2.27668213      -2.20233260
H        2.65613207      -1.80068213      -0.31933260
H       -0.89886793      -3.87368213      -0.88133260
H        0.54813207      -0.27568213       0.93966740
H       -2.34686793      -4.27468213       1.04566740
H       -0.91086793      -0.70468213       2.92566740
H       -3.07286793      -3.55068213       3.04066740
H        2.78600807      -1.75024913      -2.11947260
H        2.37161407      -3.26231713      -1.32655260
C        0.07513207       1.57931787      -3.56933260
C        0.71213207       1.98031787      -1.07733260
C       -0.21586793       2.01731787      -2.16433260
C        0.03213207       2.45531787       0.07666740
C       -1.39986793       2.47431787      -1.64633260
C        2.06113207       1.61031787      -0.96433260
C        0.64913207       2.53931787       1.31566740
C        2.68413207       1.69631787       0.27466740
C        1.98313207       2.16731787       1.40166740
N       -1.24986793       2.74031787      -0.30933260
H        2.60413207       1.26331787      -1.83033260
H       -0.14886793       0.51631787      -3.66433260
H        1.14413207       1.70831787      -3.74233260
H       -2.33086793       2.56631787      -2.19333260
H       -2.00786793       2.99031787       0.31566740
H        0.10813207       2.89031787       2.18366740
H        3.72113207       1.40231787       0.37566740
H        2.49113207       2.22431787       2.35766740
H       -0.47234293       2.13979387      -4.34143260
