16
Properties=species:S:1:pos:R:3 pbc="F F F"
C       -0.37191729       0.10681013       2.07453157
C        0.22008271      -1.19718987       1.54853157
H       -0.47691729       0.06981013       3.15953157
H        0.30008271       0.92181013       1.81653157
H       -1.32691729       0.29581013       1.60053157
H        1.28808271      -1.19118987       1.70853157
H        0.05408271      -1.26218987       0.47453157
H       -0.18368129      -2.09051887       2.04746857
C        0.66508271       0.83881013      -1.40846843
C       -0.51791729       0.25381013      -2.21646843
H        1.25708271       1.50281013      -2.04046843
H        0.27808271       1.40381013      -0.56246843
H        1.30108271       0.03581013      -1.03746843
H       -1.11091729      -0.34018987      -1.52246843
H       -0.14173529      -0.40844987      -3.01012943
H       -1.18269149       1.03598013      -2.61179643
