22
Properties=species:S:1:pos:R:3 pbc="F F F"
C       -1.78339464      -1.52795778      -2.20586042
C       -1.38239464      -0.12295778      -2.35986042
O       -0.56839464       0.47604222      -1.66486042
N       -1.90339464       0.63804222      -3.15886042
H       -2.79139464      -1.67795778      -2.59486042
H       -1.77139464      -1.75695778      -1.14486042
H       -1.58139464       1.59204222      -3.16286042
H       -2.62439464       0.31904222      -3.78886042
H       -1.06374164      -2.15639778      -2.75098742
C        3.01760536       0.69504222       2.04013958
C        0.66860536      -0.04295778       1.84013958
N       -0.17439464      -0.87695778       1.24713958
N        1.94660536      -0.15995778       1.54913958
N        0.22960536       0.84604222       2.71013958
H        0.21960536      -1.60595778       0.64613958
H       -1.16439464      -0.89195778       1.42513958
H        2.19860536      -0.86295778       0.85213958
H        0.87960536       1.43304222       3.21913958
H       -0.75839464       0.96704222       2.84913958
H        2.63460536       1.69904222       2.22413958
H        3.77260536       0.78204222       1.25613958
H        3.50283536       0.29214222       2.94137758
