27
Properties=species:S:1:pos:R:3 pbc="F F F"
C        2.35971144       1.24676337       1.94491584
C        3.55871144       0.37076337       2.27691584
C        2.46171144       2.70876337       2.40691584
H        2.27071144       1.24476337       0.86491584
H        1.45771144       0.80776337       2.37191584
H        3.69971144       0.38876337       3.35791584
H        3.31271144       3.17576337       1.92991584
H        4.44729144       0.77507737       1.77001484
H        3.33646144      -0.67822463       2.03150084
H        1.56254144       3.25057337       2.07837284
H        2.58137144       2.79761437       3.49677184
C       -1.91228856      -3.06523663       0.46991584
C       -0.25228856       0.27276337      -0.30008416
C       -0.78328856       0.57376337      -1.54508416
C       -0.57928856      -0.91823663       0.34991584
C       -1.47228856      -1.81323663      -0.24108416
C       -1.70428856      -0.30023663      -2.11708416
C       -2.04928856      -1.47523663      -1.46008416
O       -0.41828856       1.73176337      -2.17708416
H        0.38571144       0.99476337       0.16291584
H       -0.15428856      -1.13823663       1.32091584
H       -2.14928856      -0.06823663      -3.07408416
H       -0.85828856       1.82176337      -3.03108416
H       -1.26828856      -3.25523663       1.33091584
H       -1.82028856      -3.90723663      -0.21708416
H       -2.76628856      -2.14223663      -1.91508416
H       -2.95522156      -2.96395963       0.80463114
