19
Properties=species:S:1:pos:R:3 pbc="F F F"
C       -2.02954209       1.26910376      -0.87358136
C       -1.11454209       2.35810376      -1.37758136
H       -2.72554209       0.94910376      -1.64558136
H       -1.43754209       0.40510376      -0.58858136
H       -2.57754209       1.60610376       0.00141864
H       -0.54754209       1.96510376      -2.22258136
H       -0.40854209       2.57310376      -0.57558136
H       -1.61968209       3.28360676      -1.69106936
C        0.93345791      -0.83889624       0.35141864
C        0.21945791      -0.93689624       1.68441864
C        2.05645791      -1.88289624       0.24641864
H        0.21245791      -1.06489624      -0.43458136
H        1.29745791       0.17210376       0.19341864
H        0.07545791      -1.98689624       1.94841864
H       -0.77254209      -0.49289624       1.58441864
H        2.88645791      -1.85789624       0.92241864
H        1.58945791      -2.86089624       0.39941864
H        0.74966791      -0.42035124       2.49808544
H        2.50000791      -1.89527724      -0.76011736
