23
Properties=species:S:1:pos:R:3 pbc="F F F"
C        1.98128282      -3.28924877      -0.91936035
C        1.95228282      -1.82724877      -0.50336035
O        0.96728282      -1.43824877       0.14863965
O        2.89728282      -1.07024877      -0.81636035
H        1.40228282      -3.89924877      -0.22136035
H        3.01428282      -3.62524877      -0.88736035
H        1.59991482      -3.44542877      -1.93925035
C       -1.27271718       0.64175123      -0.97636035
C       -2.04971718       0.88575123      -2.26736035
C       -1.13771718       1.53175123       1.31163965
N       -1.68771718       1.54075123       0.10663965
N       -1.54671718       2.37075123       2.24463965
N       -0.17071718       0.67775123       1.58563965
H       -1.40971718      -0.39824877      -0.67136035
H       -0.21371718       0.80175123      -1.18736035
H       -1.61271718       0.33375123      -3.07936035
H       -1.99571718       1.94675123      -2.51336035
H       -2.40971718       2.22075123      -0.07636035
H       -2.28671718       3.02675123       2.04863965
H       -1.12471718       2.36075123       3.15963965
H        0.13528282      -0.00524877       0.88763965
H        0.25328282       0.66475123       2.49663965
H       -3.09845978       0.57504123      -2.15075035
