24
Properties=species:S:1:pos:R:3 pbc="F F F"
C       -1.09737391       2.47199916      -2.39512171
N       -0.27737391       3.20799916      -1.36912171
H       -0.13137391       2.66399916      -0.52112171
H        0.64762609       3.39699916      -1.74212171
H       -0.69537391       4.09799916      -1.12112171
H       -0.60137391       1.52899916      -2.65412171
H       -1.16537391       3.07299916      -3.30912171
H       -2.11745391       2.25622916      -2.04458171
C        1.31462609      -3.48900084      -0.08912171
C       -0.31337391       0.39199916       0.84787829
C       -0.95037391      -0.43800084      -0.06312171
C        0.84762609      -0.03600084       1.48887829
C       -0.41037391      -1.67800084      -0.36012171
C        1.37962609      -1.29000084       1.18787829
C        0.74462609      -2.13200084       0.26887829
O       -0.84937391       1.61599916       1.08287829
H       -1.76237391       1.67699916       0.80187829
H       -1.89937391      -0.20800084      -0.50012171
H        1.31762609       0.60399916       2.21987829
H       -0.91437391      -2.30800084      -1.06412171
H        2.26362609      -1.62900084       1.70687829
H        0.51162609      -4.22400084      -0.04412171
H        2.06862609      -3.77200084       0.64587829
H        1.76121409      -3.51887084      -1.09394171
