19
Properties=species:S:1:pos:R:3 pbc="F F F"
C        1.29540667      -1.84611584       0.51325924
C        1.50840667      -1.59711584       2.06725924
H        2.06240667      -2.51611584       0.12725924
H        0.31540667      -2.29311584       0.35725924
H        1.35540667      -0.91511584      -0.04174076
H        0.56840667      -1.24011584       2.48825924
H        2.25214667      -0.79344584       2.17196024
H        1.77770667      -2.55273584       2.54082824
C       -0.43859333       0.95388416      -0.69474076
C       -0.69359333       2.45888416      -0.84374076
C       -1.68759333       0.09388416      -1.08574076
H        0.40340667       0.66988416      -1.32774076
H       -0.19859333       0.71488416       0.34025924
H       -1.68259333       2.65788416      -0.42774076
H       -1.94059333       0.25188416      -2.13074076
H       -1.45759333      -0.96111584      -0.93574076
H       -2.53559333       0.36088416      -0.45474076
H        0.02556667       3.08220416      -0.29212376
H       -0.75523333       2.77843416      -1.89449676
