23
Properties=species:S:1:pos:R:3 pbc="F F F"
C       -0.56324028      -1.86193569      -1.55750241
C        0.06275972      -0.59493569      -1.05450241
C        1.33375972      -0.61893569      -0.49350241
C       -0.61124028       0.62406431      -1.13350241
C        1.92375972       0.54206431      -0.01550241
C       -0.02124028       1.79406431      -0.65950241
C        1.24775972       1.75406431      -0.10450241
H       -1.64624028      -1.74193569      -1.59250241
H       -0.34624028      -2.65793569      -0.84750241
H        1.87075972      -1.55393569      -0.42750241
H       -1.59824028       0.66606431      -1.57050241
H        2.91375972       0.50906431       0.41749759
H       -0.55324028       2.73206431      -0.72750241
H        1.70975972       2.66006431       0.25849759
H       -0.19439028      -2.15543569      -2.55138241
C       -0.77424028      -0.43993569       2.60949759
C       -2.06724028      -0.76393569       1.87449759
H       -0.96424028       0.28206431       3.40049759
H       -0.34424028      -1.34493569       3.03749759
H       -0.05524028      -0.00593569       1.91649759
H       -1.82924028      -1.39693569       1.01849759
H       -2.53862928       0.16225431       1.51397759
H       -2.74962428      -1.33282569       2.52311759
