21
Properties=species:S:1:pos:R:3 pbc="F F F"
C        0.22373728      -0.94090379      -0.73315115
C        0.13873728      -1.05090379      -2.26015115
C        1.48273728      -1.57690379      -0.16515115
O        2.06373728      -2.47590379      -0.81215115
O        1.88473728      -1.19090379       0.95284885
H        0.18973728       0.10509621      -0.45115115
H       -0.63126272      -1.39390379      -0.24315115
H        0.51773728      -2.02690379      -2.56515115
H        0.76435728      -0.27302179      -2.72225115
H       -0.90337272      -1.01430079      -2.61035115
C       -1.62626272       1.96909621       0.66084885
C       -1.01526272       3.06709621       1.50584885
C       -3.13226272       2.14709621       0.82584885
H       -1.29626272       0.98409621       0.99284885
H       -1.37326272       2.12409621      -0.38815115
H       -0.98326272       2.73809621       2.54284885
H       -0.01526272       3.34109621       1.17884885
H       -3.63426272       1.97509621      -0.12715115
H       -1.72245272       3.90472821       1.41494885
H       -3.24319272       3.19903821       1.12764885
H       -3.52788272       1.46631721       1.59394885
