37
Properties=species:S:1:pos:R:3 pbc="F F F"
C       -1.06178447      -0.02555958      -1.63488284
C       -1.32078447       1.05044042      -2.69888284
C       -1.01078447      -1.38255958      -2.22388284
C        0.21521553      -1.91155958      -2.60188284
C       -2.18178447      -2.08055958      -2.52688284
C        0.29721553      -3.10555958      -3.27488284
C       -2.12578447      -3.29955958      -3.22188284
C       -0.86478447      -3.81755958      -3.60088284
H       -0.12078447       0.18544042      -1.12488284
H       -1.85278447       0.01044042      -0.88688284
H       -2.24278447       0.77344042      -3.20488284
H        1.12221553      -1.35655958      -2.40388284
H       -3.14578447      -1.66455958      -2.27388284
H        1.25221553      -3.45955958      -3.62288284
H       -3.03578447      -3.82855958      -3.47288284
H       -0.80178447      -4.74555958      -4.15388284
H       -0.47057647       1.08328442      -3.39606784
H       -1.39732447       2.05202142      -2.25057684
C        3.45321553       1.48844042       0.82211716
C        1.60021553      -0.27755958       1.08911716
C        2.13121553       0.94744042       1.29611716
C        0.07921553       0.81744042       2.36011716
C        1.18421553       1.67444042       2.10811716
C       -1.03578447       1.22344042       3.12211716
C        1.15621553       2.98144042       2.64111716
C       -1.03478447       2.49944042       3.63811716
C        0.03621553       3.38544042       3.41011716
N        0.35621553      -0.36655958       1.72411716
H        2.06921553      -1.06655958       0.51311716
H       -0.25378447      -1.18055958       1.72711716
H        4.16921553       0.67044042       0.75011716
H        3.82921553       2.17344042       1.58411716
H       -1.86278447       0.55344042       3.30011716
H        1.98221553       3.65644042       2.47111716
H       -1.85678447       2.83344042       4.23511716
H        0.01421553       4.37644042       3.84011716
H        3.41181553       2.03157642      -0.13354484
