21
Properties=species:S:1:pos:R:3 pbc="F F F"
C        1.21311636       0.77204592       2.15961572
C        1.09511636      -0.49295408       0.07761572
N        0.92511636      -0.42695408       1.39361572
N        1.61211636       0.51504592      -0.59638428
N        0.83611636      -1.61295408      -0.53938428
H        0.53611636      -1.22595408       1.87861572
H        1.81611636       1.39404592      -0.13938428
H        1.78211636       0.43504592      -1.59338428
H        0.43411636      -2.38795408      -0.02438428
H        1.03911636      -1.72795408      -1.52038428
H        0.55911636       0.76604592       3.03361572
H        0.97211636       1.66904592       1.58661572
H        2.25997836       0.78218592       2.49721572
C       -2.50688364       0.66904592      -0.50938428
C       -3.11188364       0.54104592      -1.90838428
H       -1.69488364       1.39704592      -0.51038428
H       -3.27388364       1.01404592       0.18461572
H       -2.13588364      -0.29895408      -0.16938428
H       -3.43888364       1.54204592      -2.17938428
H       -2.28979464       0.20232592      -2.55602428
H       -3.99370764      -0.11641408      -1.91974428
