23
Properties=species:S:1:pos:R:3 pbc="F F F"
C        2.97282313      -1.02709523       1.37802774
C       -1.18117687      -0.91909523       0.17902774
C       -0.85817687      -1.00109523       1.48802774
C       -0.16117687      -0.85509523      -0.76097226
C        0.49582313      -1.05809523       1.89002774
C        1.16982313      -0.90509523      -0.38197226
C        1.52482313      -0.98609523       0.95102774
H       -2.21617687      -0.89409523      -0.13297226
H       -1.64217687      -1.05009523       2.23302774
H       -0.41817687      -0.78709523      -1.80697226
H        0.73282313      -1.15709523       2.93902774
H        1.93682313      -0.86409523      -1.14297226
H        3.13082313      -0.26909523       2.14502774
H        3.58582313      -0.76309523       0.52102774
H        3.31218313      -2.00126523       1.75989774
C       -1.99917687       2.33390477      -1.68297226
C       -1.74417687       3.58090477      -2.54597226
H       -2.98317687       1.92690477      -1.90697226
H       -1.24417687       1.58090477      -1.90397226
H       -1.91917687       2.59390477      -0.62797226
H       -0.76117687       3.95490477      -2.25797226
H       -2.46019687       4.38911477      -2.33595226
H       -1.66843687       3.31191477      -3.60988226
