20
Properties=species:S:1:pos:R:3 pbc="F F F"
C       -0.83569600       0.96583607       0.27930607
C       -1.70569600       2.18483607      -0.07469393
C       -0.25769600       1.14883607       1.71030607
O       -1.61669600      -0.23916393       0.22730607
H       -0.01669600       0.88983607      -0.43869393
H       -1.05669600       3.05383607      -0.17869393
H       -1.06969600       1.22883607       2.43430607
H        0.36630400       0.29483607       1.97130607
H        0.34430400       2.05683607       1.75430607
H       -1.05669600      -0.99616393       0.44230607
H       -2.44771600       2.38426607       0.71247607
H       -2.16323600       2.03981607      -1.06445393
C        1.96030400      -1.57016393      -0.48269393
C        2.47030400      -2.33416393      -1.66469393
H        1.77630400      -0.54016393      -0.77369393
H        1.03630400      -2.02416393      -0.13069393
H        2.70630400      -1.60216393       0.31030607
H        2.65430400      -3.36116393      -1.35169393
H        3.40077400      -1.88414393      -2.04112393
H        1.74571400      -2.45312393      -2.48373393
