30
Properties=species:S:1:pos:R:3 pbc="F F F"
C        1.09591490      -2.04913294      -4.85188064
C        0.02991490      -0.96813294      -1.36088064
C        0.82091490      -1.25013294      -2.47488064
C       -1.33808510      -1.08913294      -1.44388064
C        0.24591490      -1.68713294      -3.66388064
C       -1.91908510      -1.49013294      -2.65388064
C       -1.12608510      -1.81213294      -3.73688064
H        0.49291490      -0.65913294      -0.43388064
H        1.89091490      -1.15113294      -2.39288064
H       -1.96008510      -0.88213294      -0.58488064
H       -2.99008510      -1.59613294      -2.72588064
H        1.88491490      -1.30313294      -4.95188064
H        0.49191490      -2.00313294      -5.75688064
H       -1.59008510      -2.15813294      -4.64988064
H        1.54886490      -3.04879194      -4.77759164
C        2.55491490       2.33386706       2.75211936
C       -0.83508510       0.98186706       1.79411936
C       -1.41308510       0.82886706       3.03911936
C        0.44991490       1.48286706       1.70911936
C        1.15391490       1.82586706       2.85211936
C       -0.73008510       1.17786706       4.20211936
C        0.54691490       1.68386706       4.10111936
H       -1.37808510       0.71086706       0.90111936
H       -2.39908510       0.40686706       3.12511936
H        0.91591490       1.57986706       0.73711936
H       -1.19308510       1.03886706       5.17011936
H        2.73891490       3.01386706       3.58611936
H        2.67091490       2.91386706       1.83811936
H        1.07591490       1.96286706       5.00211936
H        3.31856490       1.54238506       2.77210236
