29
Properties=species:S:1:pos:R:3 pbc="F F F"
C        0.05014650       0.08265288      -1.54653131
C        0.49314650      -0.62334712      -2.82653131
C       -0.19285350      -0.88034712      -0.40853131
C        0.88914650      -1.41534712       0.31946869
C       -1.49185350      -1.29234712      -0.09853131
C        0.65014650      -2.35334712       1.32346869
C       -1.73485350      -2.23634712       0.92346869
C       -0.64785350      -2.77234712       1.62846869
H        0.82314650       0.76365288      -1.24553131
H       -0.85685350       0.65965288      -1.73353131
H        1.48014650      -1.06134712      -2.66353131
H        1.90314650      -1.11334712       0.09646869
H       -2.32985350      -0.90134712      -0.65953131
H        1.48414650      -2.76534712       1.87746869
H       -2.74385350      -2.55734712       1.14446869
H       -0.82885350      -3.51634712       2.38346869
H        0.53915650       0.08416288      -3.66754931
H       -0.21494350      -1.44248712      -3.02049931
C        0.53114650       3.59965288      -0.22353131
C       -0.51485350       3.84165288       0.87146869
C        1.65314650       2.77265288       0.37446869
H        0.06714650       3.08565288      -1.06453131
H        0.93914650       4.54565288      -0.55753131
H       -0.00385350       3.95765288       1.83146869
H        2.14714650       3.35965288       1.14546869
H        1.22214650       1.89165288       0.85246869
H       -1.24674350       3.02175288       0.91735289
H       -1.04172350       4.78712288       0.67525379
H        2.41941650       2.41511288      -0.32908731
