23
Properties=species:S:1:pos:R:3 pbc="F F F"
C       -1.34128036      -2.25482845      -1.38794742
C       -0.66128036      -1.06982845       0.70305258
C       -0.32328036      -1.47882845      -0.55694742
C        0.22771964      -0.33982845       1.46305258
C        0.99471964      -1.21782845      -0.98494742
C        1.49971964      -0.08382845       1.04905258
C        1.90871964      -0.54582845      -0.18394742
H       -1.61928036      -1.33182845       1.11505258
H       -0.09728036       0.01217155       2.42105258
H       -2.33328036      -1.83182845      -1.22494742
H       -1.35428036      -3.28082845      -1.02994742
H        1.33071964      -1.53382845      -1.95794742
H        2.17971964       0.47017155       1.68305258
H        2.91571964      -0.36082845      -0.53294742
H       -1.12583036      -2.26058845      -2.46662742
C       -1.32428036       2.58117155      -0.36394742
C       -0.51428036       3.68617155       0.41205258
H       -1.77128036       3.02217155      -1.25194742
H       -0.64128036       1.78617155      -0.66894742
H       -2.09328036       2.13717155       0.26705258
H       -0.14628036       3.23117155       1.33205258
H       -1.16996036       4.52765555       0.68035258
H        0.36748964       4.03351255      -0.14637742
