33
Properties=species:S:1:pos:R:3 pbc="F F F"
C       -0.69391550       1.78868421       0.64689536
C       -0.75891550       2.75268421       1.81789536
C        0.71608450       1.47368421       0.22089536
C        1.23108450       2.08068421      -0.89710464
C        1.54008450       0.63168421       0.96889536
C        2.50408450       1.79968421      -1.35210464
C        2.84408450       0.36268421       0.53489536
C        3.31408450       0.95068421      -0.63410464
H       -1.19491550       0.85868421       0.91889536
H       -1.23891550       2.21668421      -0.19610464
H       -0.16591550       3.61468421       1.53589536
H        0.61608450       2.76768421      -1.46210464
H        1.16508450       0.15068421       1.86089536
H        2.87608450       2.26668421      -2.25310464
H        3.47508450      -0.30931579       1.09689536
H        4.31608450       0.73868421      -0.98110464
H       -0.33226550       2.29956121       2.72489736
H       -1.78741550       3.08049421       2.02940936
C       -2.97291550      -2.60731579       1.57089536
C       -2.55391550      -1.28631579      -0.57110464
C       -2.03691550      -2.06031579       0.48089536
C       -1.72291550      -0.79331579      -1.62110464
C       -0.65591550      -2.35331579       0.47589536
C       -0.38191550      -1.08931579      -1.60810464
C        0.16408450      -1.85031579      -0.54410464
H       -3.60291550      -1.04731579      -0.58110464
H       -2.14591550      -0.19431579      -2.41510464
H       -2.60191550      -3.59231579       1.84589536
H       -3.96291550      -2.75031579       1.13689536
H       -0.21891550      -2.94031579       1.27089536
H        0.26708450      -0.73231579      -2.39310464
H        1.22508450      -2.05931579      -0.52910464
H       -3.07857550      -1.98831979       2.47404436
