18
Properties=species:S:1:pos:R:3 pbc="F F F"
C        0.25231410       1.17843230      -1.64937051
C       -1.02668590       1.01543230      -0.87837051
O       -1.22568590       1.64043230       0.18762949
O       -1.82868590       0.16743230      -1.30737051
H        0.15931410       0.66743230      -2.61137051
H        0.98931410       0.65243230      -1.05837051
H        0.53219410       2.22492230      -1.84048751
C        0.84531410      -1.24256770       1.56762949
C        2.09731410      -0.38356770       1.56062949
C        0.87031410      -2.36856770       0.55062949
H        0.73431410      -1.68556770       2.55962949
H       -0.02168590      -0.60956770       1.38062949
H        2.16131410       0.20643230       0.65062949
H        2.96231410      -1.05056770       1.58062949
H        0.97931410      -1.95956770      -0.45637051
H        1.70631410      -3.03656770       0.76762949
H        2.15147410       0.26705230       2.44592949
H       -0.08173590      -2.91269770       0.63737949
