20
Properties=species:S:1:pos:R:3 pbc="F F F"
C        0.22788638       2.42355136       0.90235922
C       -0.77011362      -1.06144864       1.01635922
C       -0.43411362       1.09355136       0.72135922
C       -1.47711362       0.71955136      -0.06664078
N       -0.01611362      -0.04044864       1.38735922
N       -1.66911362      -0.63044864       0.13735922
H       -0.64611362      -2.08544864       1.35035922
H       -2.35211362      -1.21644864      -0.32864078
H       -2.04611362       1.36055136      -0.71764078
H        1.03288638       2.51155136       0.18335922
H        0.68688638       2.39655136       1.88735922
H       -0.44373362       3.29220136       0.83620422
C        1.98688638      -0.59544864      -1.34664078
C        1.79188638      -1.73744864      -2.34464078
H        1.02188638      -0.20144864      -1.05264078
H        2.52388638      -0.92744864      -0.45964078
H        2.56288638       0.20655136      -1.79064078
H        2.76788638      -2.00544864      -2.74364078
H        1.14978338      -1.42032564      -3.17958878
H        1.36754838      -2.62483064      -1.85220778
