23
Properties=species:S:1:pos:R:3 pbc="F F F"
C        0.30570641      -2.02286643       1.89693968
C        0.14670641      -0.19986643       0.15693968
C        0.40470641      -0.57486643       1.47693968
C        0.22070641       1.14213357      -0.22706032
C        0.73570641       0.41713357       2.40993968
C        0.55570641       2.12213357       0.70893968
C        0.81470641       1.75913357       2.02893968
H       -0.11729359      -0.95286643      -0.57006032
H        0.01570641       1.42513357      -1.25106032
H        0.27170641      -2.66586643       1.01593968
H       -0.63829359      -2.14086643       2.43093968
H        0.90670641       0.17213357       3.44693968
H        0.61270641       3.16113357       0.41093968
H        1.06670641       2.51613357       2.75993968
H        1.12399641      -2.35161943       2.55444968
C       -1.25029359      -0.38586643      -3.34606032
C       -1.51429359      -1.67086643      -4.13106032
H       -2.01429359      -0.21986643      -2.59006032
H       -0.28229359      -0.45586643      -2.85106032
H       -1.23529359       0.46813357      -4.02506032
H       -1.53829359      -2.50986643      -3.43506032
H       -2.47510359      -1.60101543      -4.66207032
H       -0.69359359      -1.82982843      -4.84603032
