23
Properties=species:S:1:pos:R:3 pbc="F F F"
C        1.35948344       1.98576327       1.49178409
C       -0.89251656       0.14576327      -1.67721591
C        0.41748344      -0.23423673      -1.44321591
C       -1.47651656       1.12176327      -0.89421591
C        1.14548344       0.35176327      -0.40621591
C       -0.75551656       1.71776327       0.13578409
C        0.56948344       1.34376327       0.37878409
H       -1.46551656      -0.33323673      -2.45821591
H        0.86648344      -1.01523673      -2.02821591
H       -2.50751656       1.38776327      -1.04021591
H        2.16248344       0.03376327      -0.22321591
H       -1.22351656       2.48076327       0.74178409
H        1.17148344       3.05576327       1.47278409
H        2.41948344       1.83576327       1.29278409
H        1.11987344       1.58593327       2.48813409
C       -0.86951656      -2.56323673       0.67778409
C        0.39848344      -3.18923673       1.24078409
H       -0.87751656      -1.50223673       0.92078409
H       -0.88351656      -2.66823673      -0.40721591
H       -1.75551656      -3.03523673       1.09178409
H        1.22648344      -2.61323673       0.82978409
H        0.45007344      -3.08891673       2.33498409
H        0.53178344      -4.22451573       0.89375409
