24
Properties=species:S:1:pos:R:3 pbc="F F F"
C        2.89213055      -1.68135017      -0.97303536
C        4.34913055      -1.98935017      -0.63603536
H        2.82413055      -0.72535017      -1.49803536
H        2.48213055      -2.46635017      -1.60903536
H        2.29713055      -1.62135017      -0.05903536
H        4.37313055      -2.95635017      -0.13903536
H        4.75164155      -1.21817117       0.03721464
H        4.95509355      -2.04792217      -1.55221536
C       -2.30386945      -1.34535017       2.08696464
C       -0.38486945       0.00264983      -0.90803536
C       -0.39886945       1.36864983      -0.65603536
C       -1.00086945      -0.87135017      -0.01603536
C       -1.63486945      -0.39235017       1.12696464
C       -1.02486945       1.85864983       0.48096464
C       -1.63686945       0.98064983       1.36796464
O        0.19913055       2.22764983      -1.52503536
H        0.11613055      -0.37135017      -1.79003536
H       -0.95786945      -1.93635017      -0.19703536
H       -1.03086945       2.91664983       0.66996464
H        0.09813055       3.14564983      -1.26403536
H       -1.98686945      -1.10335017       3.10196464
H       -1.94486945      -2.35635017       1.88796464
H       -2.10586945       1.37464983       2.26096464
H       -3.40232945      -1.33602917       2.02960464
