23
Properties=species:S:1:pos:R:3 pbc="F F F"
C       -2.74467613      -3.94290765       0.99001626
C       -1.95167613      -2.66690765       0.72601626
O       -0.72967613      -2.67290765       0.98401626
O       -2.53967613      -1.66690765       0.25601626
H       -2.61167613      -4.24990765       2.02801626
H       -2.35067613      -4.73890765       0.35501626
H       -3.81780613      -3.82998365       0.77639626
C        0.99932387       4.16509235      -1.60098374
C        1.13832387       0.24809235       0.16101626
C       -0.02367613       0.68709235      -0.46398374
C        2.25632387       1.07709235       0.21301626
C       -0.06667613       1.95609235      -1.03398374
C        2.20332387       2.34409235      -0.35898374
C        1.04732387       2.79009235      -0.99398374
O        1.19132387      -0.98990765       0.72501626
H        0.34232387      -1.48890765       0.71601626
H       -0.89067613       0.04709235      -0.49998374
H        3.15532387       0.73309235       0.70001626
H       -0.97767613       2.29909235      -1.50698374
H        3.07432387       2.98609235      -0.30998374
H        0.25032387       4.19409235      -2.39498374
H        1.97032387       4.36309235      -2.05298374
H        0.78442387       4.94609235      -0.85676474
