26
Properties=species:S:1:pos:R:3 pbc="F F F"
C        1.20712507      -2.32566549       0.47023613
C        1.04812507      -0.50266549      -1.26976387
C        1.30612507      -0.87766549       0.05023613
C        1.12212507       0.83933451      -1.65376387
C        1.63712507       0.11433451       0.98323613
C        1.45712507       1.81933451      -0.71776387
C        1.71612507       1.45633451       0.60223613
H        0.78412507      -1.25566549      -1.99676387
H        0.91712507       1.12233451      -2.67776387
H        1.17312507      -2.96866549      -0.41076387
H        0.26312507      -2.44366549       1.00423613
H        1.80812507      -0.13066549       2.02023613
H        1.51412507       2.85833451      -1.01576387
H        1.96812507       2.21333451       1.33323613
H        2.02541507      -2.65441849       1.12774613
C       -2.26787493      -0.22266549       0.42323613
C       -3.37187493      -0.98566549      -0.31676387
C       -2.79987493       0.99333451       1.19423613
H       -1.75187493      -0.89366549       1.11023613
H       -1.54187493       0.12733451      -0.31176387
H       -3.92387493      -0.30366549      -0.96276387
H       -3.48287493       0.66233451       1.97423613
H       -4.05933493      -1.44673949       0.40767613
H       -2.95195493      -1.74757949      -0.98993387
H       -1.96476493       1.52345851       1.67544613
H       -3.33884493       1.66345951       0.50834613
