18
Properties=species:S:1:pos:R:3 pbc="F F F"
C       -1.35999819      -2.37121782       1.63977257
C       -0.12899819      -2.34521782       0.76077257
O        0.49500181      -3.37821782       0.50077257
N        0.25200181      -1.18121782       0.25777257
H        1.09400181      -1.17221782      -0.30122743
H       -0.25399819      -0.33321782       0.39377257
H       -1.36099819      -3.32321782       2.17377257
H       -2.25499819      -2.36321782       1.01977257
H       -1.37581219      -1.57116782       2.39453257
C       -0.73799819       1.64878218      -1.68022743
C        0.22800181       2.29878218      -0.72322743
O        0.99200181       1.58978218      -0.05422743
N        0.23000181       3.60878218      -0.66422743
H       -1.10099819       0.73078218      -1.22822743
H       -0.15299819       1.36578218      -2.55822743
H        0.89000181       4.05178218      -0.04322743
H       -0.38099819       4.16578218      -1.23322743
H       -1.58345419       2.26359318      -2.02258743
