16
Properties=species:S:1:pos:R:3 pbc="F F F"
C        1.44396270      -0.22182863      -0.97750268
C        2.75696270      -0.91182863      -0.98750268
H        1.57396270       0.86117137      -0.96250268
H        0.89496270      -0.48682863      -1.88150268
H        0.84296270      -0.52582863      -0.12150268
H        2.58296270      -1.98582863      -1.05650268
H        3.27931270      -0.70288863      -0.04225268
H        3.37110270      -0.62022863      -1.85225268
C       -1.99403730       0.63717137       0.21249732
C       -2.20603730       0.49817137       1.75249732
H       -2.92303730       0.93917137      -0.27150268
H       -1.24903730       1.41017137       0.01949732
H       -1.64903730      -0.30682863      -0.20950268
H       -2.67903730       1.40317137       2.12749732
H       -2.82049730      -0.38094863       1.99657732
H       -1.23475730       0.37561137       2.25407732
