16
Properties=species:S:1:pos:R:3 pbc="F F F"
C        0.27764200      -0.23513040       1.89257828
C        0.70464200      -0.04913040       3.34957828
H        1.03964200      -0.76513040       1.32657828
H       -0.63935800      -0.82613040       1.86357828
H        0.08264200       0.72986960       1.42857828
H        0.95264200      -1.01913040       3.78057828
H       -0.14835800       0.36286960       3.88857828
H        1.57066900       0.62610960       3.41316828
C       -0.29435800       0.02086960      -1.87142172
C       -0.68635800       0.26986960      -3.36342172
H       -1.16835800       0.14586960      -1.23142172
H        0.07964200      -0.99713040      -1.76342172
H        0.49064200       0.70786960      -1.55342172
H        0.22464200       0.19086960      -3.95142172
H       -1.12940450       1.26199960      -3.53483172
H       -1.37372634      -0.49513040      -3.75368172
