31
Properties=species:S:1:pos:R:3 pbc="F F F"
C       -0.26552460       3.82627262      -1.20355027
C       -1.24952460       0.68627262       0.79744973
C       -1.23952460       1.69827262      -0.19755027
C       -0.24352460       0.67627262       1.78644973
C       -0.24852460       2.69527262      -0.18955027
C        0.74847540       1.66827262       1.77144973
C        0.74247540       2.66327262       0.79444973
O       -0.17952460      -0.27572738       2.77644973
H       -2.01852460      -0.07572738       0.81044973
H       -1.99752460       1.71027262      -0.97155027
H       -0.89252460      -0.93172738       2.72544973
H        1.52347540       1.65827262       2.52544973
H       -0.49552460       3.41627262      -2.18655027
H        0.72047540       4.29327262      -1.23455027
H        1.51047540       3.42027262       0.79444973
H       -1.01183460       4.61614262      -1.03286027
C        1.66447540      -0.74172738      -0.88955027
C        2.78747540      -1.31872738      -1.74755027
C        0.46147540      -1.62572738      -0.78755027
C        0.06647540      -2.45972738       0.21144973
C       -1.51152460      -2.43772738      -1.32855027
N       -0.54352460      -1.63672738      -1.74455027
N       -1.16852460      -2.94272738      -0.14355027
H        1.97647540      -0.49172738       0.12144973
H        1.33847540       0.16827262      -1.39755027
H        2.34447540      -1.85172738      -2.59055027
H        0.54547540      -2.74172738       1.13544973
H       -2.40852460      -2.60572738      -1.91555027
H       -1.72452460      -3.57972738       0.40944973
H        3.42126540      -2.01378738      -1.17729027
H        3.40012540      -0.49298738      -2.13846027
