15
Properties=species:S:1:pos:R:3 pbc="F F F"
C        1.68751612      -0.07719902      -1.82808653
C        1.24051612      -1.89719902       0.17091347
S        0.31151612      -0.84719902      -0.95108653
H        2.42551612       0.24180098      -1.09108653
H        1.31651612       0.82580098      -2.31208653
H        1.93251612      -1.29119902       0.75691347
H        0.55051612      -2.40219902       0.84691347
H        1.79751612      -2.64619902      -0.39208653
H        2.19646612      -0.70107102      -2.57758953
C       -2.27848388       1.57980098       1.33891347
S       -0.62348388       0.98780098       1.01291347
H       -0.17348388       1.03580098       2.27491347
H       -2.18748388       2.56980098       1.79291347
H       -2.75248388       0.92780098       2.07491347
H       -2.92309388       1.66962998       0.45211947
