24
Properties=species:S:1:pos:R:3 pbc="F F F"
C        0.07705737      -0.51994387      -2.02545403
C        0.08505737       2.13205613      -2.94145403
S       -1.03594263       0.76805613      -2.63845403
H        0.69405737      -0.13394387      -1.21545403
H       -0.50894263      -1.35494387      -1.64645403
H        0.72105737      -0.86594387      -2.83345403
H       -0.39994263       2.83705613      -3.61345403
H        0.98305737       1.75605613      -3.42845403
H        0.35909837       2.66418613      -2.01855403
C        2.39405737       0.71705613       1.66954597
C       -1.26394263      -0.12094387       1.52054597
C       -1.26394263      -1.46694387       1.80854597
C       -0.07294263       0.58005613       1.46154597
C        1.12605737      -0.05994387       1.67054597
C       -0.06794263      -2.10994387       2.01154597
C        1.12105737      -1.41494387       1.94754597
H       -2.20194263       0.38905613       1.34954597
H       -2.19594263      -2.00994387       1.87254597
H       -0.08994263       1.63805613       1.25354597
H       -0.05894263      -3.16794387       2.23754597
H        2.30005737       1.57505613       1.00154597
H        3.19205737       0.08405613       1.27854597
H        2.04905737      -1.93394387       2.13054597
H        2.67174237       1.06575613       2.67517597
