19
Properties=species:S:1:pos:R:3 pbc="F F F"
C       -0.16469223      -1.30042540      -1.98048618
C        1.87130777      -1.45742540      -0.08748618
S        1.55030777      -1.52842540      -1.86548618
H       -0.38069223      -0.27742540      -2.28548618
H       -0.55669223      -1.96542540      -2.75048618
H       -0.64969223      -1.54542540      -1.03448618
H        1.76130777      -2.47042540       0.30251382
H        1.10330777      -0.89642540       0.41651382
H        2.86751077      -1.08883740       0.19838692
C       -0.42869223       1.17057460       0.32651382
C       -0.49269223       2.64757460      -0.06648618
C       -1.18269223       0.86057460       1.61051382
O       -1.86169223       1.76657460       2.15351382
O       -1.09369223      -0.29542540       2.08751382
H       -0.85569223       0.59457460      -0.48048618
H        0.62730777       0.97057460       0.47251382
H       -0.30969223       3.27757460       0.80551382
H       -1.50269223       2.85157460      -0.42548618
H        0.23126977       2.92347260      -0.84735688
