30
Properties=species:S:1:pos:R:3 pbc="F F F"
C       -1.91801209       0.75572171       3.15075076
C       -1.68001209       1.88672171       0.94975076
C       -1.11001209       1.55872171       2.17175076
C       -0.97901209       2.63172171       0.00875076
C        0.19498791       1.97872171       2.43275076
C        0.31398791       3.04772171       0.28275076
C        0.89798791       2.72772171       1.48675076
H       -2.68401209       1.55772171       0.72175076
H       -1.43301209       2.84672171      -0.94324924
H       -2.30301209      -0.11927829       2.63875076
H       -2.77201209       1.37272171       3.43375076
H        0.66398791       1.80372171       3.37175076
H        0.86098791       3.63272171      -0.44324924
H        1.90398791       3.06272171       1.69975076
H       -1.40504209       0.44563771       4.07309076
C        2.72398791      -3.23727829      -1.97824924
C       -0.94801209      -1.16627829      -1.18624924
C       -0.88101209      -2.09327829      -2.21424924
C        0.17698791      -0.91727829      -0.40824924
C        0.30998791      -2.76227829      -2.47024924
C        1.36698791      -1.58727829      -0.66624924
C        1.43698791      -2.51827829      -1.69624924
H       -1.87301209      -0.64927829      -0.97224924
H       -1.74701209      -2.32327829      -2.80624924
H        0.13098791      -0.19627829       0.39375076
H        0.35598791      -3.47927829      -3.27724924
H        2.23598791      -1.37927829      -0.06024924
H        3.54498791      -2.56927829      -1.71024924
H        2.80598791      -3.44527829      -3.04224924
H        2.83630091      -4.19626129      -1.45123924
