24
Properties=species:S:1:pos:R:3 pbc="F F F"
C       -2.35508280       0.45524807      -2.78199009
C       -3.54708280       1.38024807      -2.79299009
H       -1.60408280       0.78424807      -3.49799009
H       -1.91108280       0.45224807      -1.78699009
H       -2.66808280      -0.55975193      -3.02499009
H       -4.21808280       1.07524807      -1.98999009
H       -4.09090080       1.30850407      -3.74647009
H       -3.22108780       2.41398507      -2.60560009
C        1.07991720       0.22124807       3.65500991
C        0.72091720      -0.46075193      -0.56899009
C        0.36091720      -1.46975193       0.29500991
C        1.14991720       0.75224807      -0.07699009
C        0.47491720      -1.25475193       1.66400991
C        1.27291720       0.96024807       1.27900991
C        0.93991720      -0.03475193       2.17200991
O        0.60391720      -0.65075193      -1.91099009
H        0.27891720      -1.53175193      -2.12399009
H        0.00391720      -2.41775193      -0.08199009
H        1.38891720       1.52624807      -0.78399009
H        0.20391720      -2.04975193       2.34700991
H        1.63991720       1.91024807       1.64100991
H        1.44091720       1.23724807       3.80600991
H        1.84791720      -0.45075193       4.04000991
H        0.16465440       0.08605507       4.24999991
