20
Properties=species:S:1:pos:R:3 pbc="F F F"
C        1.07981552       1.70790970      -1.72600106
C       -0.42918448       0.62590970       1.39899894
C        0.16581552       1.24690970      -0.62700106
C       -1.16018448       0.95490970      -0.64600106
N        0.60281552       1.03390970       0.66699894
N       -1.50818448       0.57090970       0.62799894
H       -0.39818448       0.36290970       2.45199894
H       -2.42018448       0.23590970       0.94799894
H       -1.80118448       0.96690970      -1.49800106
H        2.06581552       1.28690970      -1.53900106
H        1.14081552       2.79290970      -1.67100106
H        0.75303252       1.41935970      -2.73593106
C        0.80581552      -2.89209030       0.88999894
C        0.36181552      -2.70209030      -0.55100106
H        1.68581552      -2.28209030       1.09299894
H        0.00581552      -2.57409030       1.55999894
H        1.04881552      -3.93309030       1.08899894
H        0.34281552      -1.63809030      -0.78800106
H       -0.65718448      -3.08409030      -0.61000106
H        0.99742652      -3.24052030      -1.26939106
