27
Properties=species:S:1:pos:R:3 pbc="F F F"
C        1.82901269       0.51208338       3.02574626
C        2.93801269       0.17508338       4.01074626
H        1.59501269       1.57408338       3.06974626
H        2.16701269       0.28108338       2.01474626
H        0.93801269      -0.07891662       3.24374626
H        3.76301269       0.85508338       3.83274626
H        3.30101269      -0.81391662       3.76074626
H        2.62692269       0.21307338       5.06515626
C       -0.11398731       2.01908338       0.46774626
C       -1.24598731       3.02208338       0.24174626
C       -0.29498731       0.72508338      -0.28725374
C        0.22401269       0.56508338      -1.57325374
C       -1.00998731      -0.33291662       0.28674626
C        0.03301269      -0.62891662      -2.27925374
C       -1.20398731      -1.52991662      -0.40825374
C       -0.68098731      -1.67591662      -1.69125374
O       -0.86798731      -2.84891662      -2.36225374
H        0.85001269       2.46808338       0.22074626
H       -0.09298731       1.76908338       1.52674626
H       -2.16698731       2.46608338       0.05074626
H        0.77401269       1.36908338      -2.02525374
H       -1.41798731      -0.22591662       1.28374626
H        0.44501269      -0.75191662      -3.26725374
H       -1.75198731      -2.34491662       0.04174626
H       -0.47598731      -2.82991662      -3.24225374
H       -1.02519731       3.68445338      -0.60826174
H       -1.40171731       3.61385338       1.15583526
