26
Properties=species:S:1:pos:R:3 pbc="F F F"
C       -1.47136585       3.55940238      -0.10440982
C       -1.00936585       4.77940238       0.70959018
H       -2.38736585       3.80740238      -0.64540982
H       -0.69736585       3.27740238      -0.81940982
H       -1.66536585       2.71940238       0.56259018
H       -0.09236585       4.52840238       1.24659018
H       -1.79146285       5.05356238       1.43289018
H       -0.83839085       5.59840238      -0.00456982
C        0.49363415       0.26140238      -0.29340982
C        1.54363415       0.59340238      -1.33340982
C        1.21863415      -1.76859762      -1.41940982
C       -0.88936585      -1.32859762       1.74259018
C       -0.15436585      -1.99459762       0.58259018
O       -0.17836585      -3.22159762       0.44659018
N        0.49863415      -1.20659762      -0.27540982
H        0.74863415       0.66040238       0.68359018
H       -0.49036585       0.63040238      -0.59040982
H        2.54163415       0.58440238      -0.88240982
H        1.36063415       1.56540238      -1.78640982
H        0.62363415      -2.57959762      -1.83640982
H       -0.43036585      -0.35659762       1.92259018
H        1.41929415      -0.22808762      -2.05430982
H        1.32472415      -0.91265762      -2.10213982
H        2.21117415      -2.16113762      -1.15337982
H       -1.95547285      -1.23304762       1.48904018
H       -0.77903285      -1.93001762       2.65698018
