23
Properties=species:S:1:pos:R:3 pbc="F F F"
C       -0.46606866       1.70231521       2.43092760
C        0.63993134       2.49331521       3.12692760
H       -0.96806866       2.32031521       1.68292760
H       -0.03206866       0.83131521       1.94192760
H       -1.18906866       1.32631521       3.15292760
H        1.05893134       1.86631521       3.91292760
H        0.23835134       3.40756521       3.58831760
H        1.44271134       2.73069521       2.41334760
C       -1.94506866       0.18331521      -2.15307240
C        0.22193134       0.51431521      -0.91707240
C       -0.75606866      -0.34968479      -1.39707240
C        1.30893134       0.01931521      -0.20707240
C        1.41893134      -1.34368479       0.04192760
C       -0.64306866      -1.71168479      -1.13907240
C        0.44093134      -2.21068479      -0.42707240
H        0.14193134       1.57631521      -1.10307240
H        2.08193134       0.69431521       0.12292760
H       -2.35006866       1.02631521      -1.59707240
H       -2.71006866      -0.58368479      -2.18307240
H        2.26693134      -1.72968479       0.59092760
H       -1.41406866      -2.37168479      -1.49407240
H        0.52293134      -3.27268479      -0.23307240
H       -1.71630866       0.55693521      -3.16207240
