27
Properties=species:S:1:pos:R:3 pbc="F F F"
C        2.66620318      -2.38928017      -1.03858178
C        1.61020318      -3.44528017      -0.76958178
H        2.19720318      -1.41328017      -1.15558178
H        3.36320318      -2.34828017      -0.20458178
H        3.21520318      -2.63928017      -1.94558178
H        2.11620318      -4.40528017      -0.72958178
H        0.87931618      -3.44815217      -1.59164978
H        1.11904518      -3.29626917       0.20333122
C        1.83020318       0.57071983       1.15841822
C        1.89020318       1.47171983       2.38741822
C        0.45820318       0.58371983       0.51641822
C       -0.67979682       0.38771983       1.29241822
C        0.30620318       0.82371983      -0.85158178
C       -1.93579682       0.41071983       0.71341822
C       -0.95479682       0.84671983      -1.45358178
C       -2.07979682       0.64871983      -0.66158178
O       -3.33679682       0.64871983      -1.20758178
H        2.58120318       0.89871983       0.43741822
H        2.06220318      -0.45528017       1.44841822
H        1.17320318       1.08671983       3.11041822
H       -0.59779682       0.18271983       2.35041822
H        1.18320318       0.97571983      -1.46358178
H       -2.80979682       0.24271983       1.32641822
H       -1.06279682       1.01771983      -2.51558178
H       -4.01679682       0.48371983      -0.54358178
H        1.62847418       2.50888983       2.13093822
H        2.86040218       1.39435983       2.89999022
