20
Properties=species:S:1:pos:R:3 pbc="F F F"
C       -3.08871210      -1.30475907      -1.94385128
C       -1.16971210      -1.01475907      -0.43485128
N       -0.79171210       0.05524093      -1.11185128
N       -2.25071210      -1.68975907      -0.81385128
N       -0.49371210      -1.37675907       0.64414872
H       -1.32071210       0.36224093      -1.91785128
H        0.04528790       0.56024093      -0.82485128
H       -2.49271210      -2.53075907      -0.30885128
H       -0.79771210      -2.16275907       1.20414872
H        0.32728790      -0.84675907       0.92714872
H       -3.68571210      -2.16175907      -2.24285128
H       -2.43871210      -1.01975907      -2.77385128
H       -3.74733210      -0.46314907      -1.68325128
C        2.94428790       2.30724093       1.32314872
C        1.89328790       1.26424093       0.90514872
O        1.78428790       1.01724093      -0.30285128
O        1.15728790       0.71524093       1.75114872
H        2.70728790       3.26224093       0.84514872
H        3.92728790       1.97824093       0.97714872
H        3.02355790       2.45020093       2.41093872
