20
Properties=species:S:1:pos:R:3 pbc="F F F"
C       -0.38422849       0.01499121      -1.20056204
C        0.64377151       2.37599121      -2.19556204
S        1.17977151       0.89199121      -1.33356204
H       -0.86922849      -0.04200879      -2.17256204
H       -0.20222849      -0.98900879      -0.82256204
H       -1.04222849       0.56099121      -0.52456204
H       -0.02322849       2.07799121      -3.00556204
H        1.50077151       2.85799121      -2.66156204
H        0.11336151       3.10006121      -1.55965204
C       -1.44522849      -1.26400879       2.01243796
C       -0.91122849      -2.60600879       1.50743796
C       -0.43422849      -0.54400879       2.89843796
H       -1.64822849      -0.62600879       1.15843796
H       -2.38422849      -1.38600879       2.53343796
H       -0.84322849      -3.30800879       2.33943796
H        0.09777151      -2.44900879       1.12143796
H        0.55077151      -0.58200879       2.42843796
H       -0.71822849       0.50799121       2.95543796
H       -1.52281849      -3.02974879       0.69724796
H       -0.37204849      -0.95755879       3.91583796
