16
Properties=species:S:1:pos:R:3 pbc="F F F"
C        1.65909150      -0.38186586       0.30724469
C        2.81209150       0.54513414       0.74024469
H        1.46009150      -0.27586586      -0.75975531
H        1.91409150      -1.42086586       0.51424469
H        0.75209150      -0.15686586       0.87024469
H        2.86209150       0.51713414       1.83024469
H        2.62635150       1.58498414       0.43330869
H        3.77937150       0.21149414       0.33643769
C       -2.18290850      -0.51886586       0.09124469
C       -2.28990850       0.35913414      -1.14375531
H       -3.12990850      -1.02986586       0.27024469
H       -1.39690850      -1.26086586      -0.04975531
H       -1.93490850       0.09213414       0.95924469
H       -1.32590850       0.83113414      -1.30475531
H       -3.07089250       1.12277414      -1.01371131
H       -2.51609250      -0.25746586      -2.02616131
