32
Properties=species:S:1:pos:R:3 pbc="F F F"
C       -0.51948728      -1.67411035       1.41122866
C       -0.72248728      -2.89311035       2.46522866
C       -2.56748728      -0.24211035       1.42322866
N       -1.34548728      -0.53211035       1.85322866
N       -3.12748728      -0.93311035       0.44722866
N       -3.21848728       0.77388965       1.95922866
H        0.53451272      -1.39311035       1.42222866
H       -0.77648728      -2.00311035       0.40422866
H       -1.80248728      -3.01511035       2.55222866
H       -0.41448728      -2.55711035       3.45422866
H       -0.93748728       0.05688965       2.57222866
H       -2.64648728      -1.72111035       0.05022866
H       -4.05448728      -0.70111035       0.12822866
H       -2.79248728       1.30488965       2.70222866
H       -4.14248728       1.01488965       1.64022866
H       -0.35443628      -3.90976035       2.26283866
C        0.26951272       0.04888965      -3.83077134
C        0.26851272       0.38288965      -1.34877134
C        0.97251272       0.38888965      -2.54277134
C        0.89451272       0.70788965      -0.15677134
C        2.20751272       1.06788965      -0.13077134
C        2.31051272       0.78388965      -2.51777134
C        2.92451272       1.12288965      -1.30277134
O        2.74351272       1.38288965       1.09422866
H       -0.78348728       0.12488965      -1.34377134
H        0.33351272       0.78588965       0.75022866
H       -0.18548728      -0.93511035      -3.70977134
H        0.99451272      -0.01611035      -4.64177134
H        2.88051272       0.82488965      -3.43577134
H        2.08751272       1.23688965       1.80622866
H        3.95951272       1.42588965      -1.28077134
H       -0.51395328       0.78131965      -4.07515134
