26
Properties=species:S:1:pos:R:3 pbc="F F F"
C       -0.98165708       2.51846788       2.66094635
C       -1.47165708       3.92746788       2.99194635
H       -1.41865708       1.78146788       3.33494635
H       -1.26965708       2.27546788       1.64194635
H        0.10534292       2.46146788       2.72294635
H       -1.07965708       4.60646788       2.23794635
H       -1.08504708       4.27207788       3.96239735
H       -2.56894708       3.99855788       2.96178535
C       -0.49565708      -0.23853212       0.19894635
C       -1.88765708      -0.01153212      -0.31705365
C       -0.42465708      -0.46453212      -2.22205365
C        2.06634292      -1.66953212       0.39094635
C        1.33034292      -1.53153212      -0.93805365
O        1.80534292      -2.01253212      -1.97105365
N        0.21434292      -0.80753212      -0.95605365
H       -0.03265708       0.70846788       0.47994635
H       -0.52665708      -0.92153212       1.04694635
H       -2.39865708       0.79246788       0.21194635
H       -2.45665708      -0.93953212      -0.24205365
H       -0.72265708      -1.38553212      -2.72305365
H        1.37934292      -1.77553212       1.22994635
H       -1.72590708       0.23108788      -1.37770165
H       -1.31486708       0.10542788      -1.91764065
H        0.24350292       0.13803788      -2.85489165
H        2.73963392      -2.53878212       0.35815835
H        2.71724492      -0.79573212       0.54192135
