23
Properties=species:S:1:pos:R:3 pbc="F F F"
C       -2.31074845      -2.21462972      -1.12199455
C       -3.36974845      -3.31862972      -0.98299455
H       -2.76974845      -1.28562972      -1.46299455
H       -1.82174845      -2.04362972      -0.16399455
H       -1.52774845      -2.50862972      -1.81799455
H       -2.88774845      -4.23062972      -0.62799455
H       -3.85220415      -3.52030972      -1.95075655
H       -4.12551355      -3.00455972      -0.24802355
C       -0.72874845       1.94537028      -1.12099455
C        0.50725155      -0.06762972      -0.27099455
C        0.31025155       1.31137028      -0.23999455
C        1.42525155      -0.67462972       0.58600545
C        2.16125155       0.10637028       1.47500545
C        1.05325155       2.08337028       0.64800545
C        1.97725155       1.48737028       1.49800545
H       -0.05274845      -0.67762972      -0.96399455
H        1.55525155      -1.74562972       0.57100545
H       -0.89674845       2.98137028      -0.82199455
H       -1.66374845       1.40637028      -0.95899455
H        2.86225155      -0.35962972       2.15200545
H        0.90625155       3.15337028       0.68800545
H        2.53925155       2.08337028       2.19700545
H       -0.48176045       1.90732028      -2.19223155
