26
Properties=species:S:1:pos:R:3 pbc="F F F"
C       -0.78495385       0.17197849      -2.16431918
C       -1.91795385      -0.77102151      -2.57631918
C       -1.12595385       1.65397849      -2.25231918
H       -0.49995385      -0.05002151      -1.14131918
H        0.08404615       0.00997849      -2.80131918
H       -2.15495385      -0.57902151      -3.62431918
H       -1.87895385       1.91497849      -1.51231918
H       -0.22795385       2.23797849      -2.04531918
H       -1.47895385       1.89497849      -3.25331918
H       -1.58523385      -1.81416151      -2.47064918
H       -2.82399385      -0.58753151      -1.98014918
C        1.55204615       2.07697849       1.20468082
C        0.96104615       0.70697849       1.11968082
C        1.68904615      -0.33302151       0.54068082
C       -0.28995385       0.43897849       1.67968082
C        1.16404615      -1.62702151       0.52368082
C       -0.81495385      -0.85102151       1.65568082
C       -0.07895385      -1.88702151       1.08668082
H        0.77304615       2.81197849       1.40768082
H        1.98704615       2.31697849       0.23368082
H        2.65904615      -0.14202151       0.10168082
H       -0.86095385       1.23697849       2.12968082
H        1.72304615      -2.43002151       0.06568082
H       -1.78295385      -1.05702151       2.08968082
H       -0.47495385      -2.89302151       1.07668082
H        2.33089615       2.13611849       1.97921082
