16
Properties=species:S:1:pos:R:3 pbc="F F F"
C       -1.10259843      -0.97595267       0.83440272
C       -1.19259843      -2.50295267       0.89440272
H       -0.07059843      -0.67795267       0.92440272
H       -1.49759843      -0.60395267      -0.10859728
H       -1.69759843      -0.49895267       1.61240272
H       -2.24059843      -2.78295267       0.80840272
H       -0.78970843      -2.86805267       1.85063872
H       -0.63535843      -2.95835267       0.06248372
C        0.62040157       2.09004733      -0.44359728
C        1.67840157       1.38304733      -1.28559728
H       -0.09659843       2.59904733      -1.08959728
H        0.08640157       1.37804733       0.17540272
H        1.09540157       2.82404733       0.20840272
H        2.39040157       0.91904733      -0.61459728
H        2.19668157       2.12847733      -1.90666728
H        1.21620157       0.61078733      -1.91804028
