16
Properties=species:S:1:pos:R:3 pbc="F F F"
C       -1.18152262       0.02205701      -1.68655779
C       -2.15352262      -1.10294299      -1.45855779
H       -0.49952262       0.09805701      -0.84755779
H       -0.60952262      -0.16794299      -2.59455779
H       -1.72652262       0.95905701      -1.79555779
H       -1.62752262      -2.04894299      -1.48355779
H       -2.80752262      -1.07994299      -2.32955779
H       -2.76636262      -1.06944999      -0.54570779
C        1.58247738       0.85205701       0.89144221
C        1.75947738       0.23305701       2.26544221
H        2.47247738       1.42205701       0.62144221
H        1.44147738       0.08405701       0.13644221
H        0.71547738       1.51105701       0.86844221
H        0.79547738      -0.18094299       2.56244221
H        2.03223738       1.00517101       2.99991221
H        2.49749738      -0.58261399       2.26758221
