30
Properties=species:S:1:pos:R:3 pbc="F F F"
C       -1.39303944      -3.89900444       0.20297627
C       -2.30703944      -1.52100444      -0.30802373
C       -1.65503944      -2.67400444      -0.61602373
C       -1.64603944      -1.39600444      -2.40502373
N       -2.28103944      -0.73800444      -1.44002373
N       -1.24903944      -2.57200444      -1.93102373
H       -2.75703944      -1.24600444       0.62797627
H       -2.69203944       0.18499556      -1.54402373
H       -1.47003944      -3.66300444       1.26397627
H       -0.36903944      -4.22000444       0.00797627
H       -1.47803944      -1.02900444      -3.41202373
H       -2.07657944      -4.72473444      -0.04387773
C        0.40596056       1.22899556      -0.09702373
C        0.98596056       0.34899556      -1.16902373
C        2.82496056       1.29899556       0.01997627
C        0.13096056       2.56899556       2.43797627
C        1.51596056       2.32599556       1.84097627
O        2.51496056       2.75099556       2.42897627
N        1.57096056       1.63999556       0.68897627
H       -0.07203944       2.10299556      -0.54302373
H       -0.30303944       0.64499556       0.49097627
H        0.41796056       0.43199556      -2.09602373
H        1.00096056      -0.68600444      -0.83302373
H        3.32896056       0.49599556       0.55797627
H       -0.64303944       2.16999556       1.79297627
H        2.01878056       0.69966556      -1.31150773
H        2.50782056       0.95663556      -0.97612173
H        3.49333056       2.16693556      -0.07981173
H        0.03962056       2.08359556       3.42085227
H       -0.08811944       3.64491556       2.50427527
