19
Properties=species:S:1:pos:R:3 pbc="F F F"
C        0.80263479      -1.44843987      -3.28991888
C       -0.84136521      -1.41243987      -0.06591888
C       -0.11736521      -1.58843987      -2.12691888
C       -1.41036521      -1.99143987      -2.10591888
N        0.22063479      -1.20643987      -0.84491888
N       -1.85536521      -1.84743987      -0.82091888
H       -0.90636521      -1.16743987       0.98708112
H       -2.81036521      -1.94943987      -0.49791888
H       -1.98436521      -2.30743987      -2.96391888
H        1.51363479      -0.64943987      -3.08591888
H        0.21663479      -1.14543987      -4.15791888
H        1.34473479      -2.37586987      -3.52653888
C        0.24763479       3.06456013       3.19208112
C        0.77863479       2.15556013       2.09508112
O        0.02963479       1.21956013       1.69708112
O        1.94863479       2.35456013       1.66408112
H        0.84663479       3.97556013       3.26308112
H        0.34563479       2.54856013       4.15108112
H       -0.81263521       3.32337013       3.05481112
