24
Properties=species:S:1:pos:R:3 pbc="F F F"
C        0.49200951       3.38530569      -0.18625923
C       -0.78599049       3.21630569      -0.99825923
H        0.96600951       2.41830569      -0.03325923
H        1.18000951       4.04130569      -0.72025923
H        0.26600951       3.83430569       0.77874077
H       -1.21299049       4.20430569      -1.14525923
H       -1.51041049       2.58180765      -0.46663323
H       -0.56355549       2.78515749      -1.98549523
C        2.18100951      -0.35969431      -1.75825923
C        1.18600951      -0.19869431       0.55274077
C        1.08400951      -0.64469431      -0.76325923
C        0.17200951      -0.45769431       1.47074077
C       -0.04799049      -1.36069431      -1.14525923
C       -0.95399049      -1.17169431       1.07374077
C       -1.06499049      -1.62469431      -0.23425923
O       -1.95099049      -1.43769431       1.95974077
H        2.06200951       0.35530569       0.86474077
H        0.23900951      -0.09869431       2.48774077
H        2.67500951       0.57230569      -1.47625923
H        1.72300951      -0.19869431      -2.73425923
H       -0.13599049      -1.73869431      -2.15025923
H       -1.93799049      -2.18069431      -0.54625923
H       -2.66699049      -1.93369431       1.55574077
H        2.92875351      -1.16213431      -1.84174223
