26
Properties=species:S:1:pos:R:3 pbc="F F F"
C        2.39513707      -0.42956399       0.25029380
C        3.52113707       0.57243601       0.49229380
C        2.65213707      -1.46556399      -0.84670620
H        2.18013707      -0.94556399       1.18629380
H        1.50513707       0.12643601      -0.03170620
H        3.81713707       1.02543601      -0.45470620
H        3.61513707      -1.94056399      -0.66870620
H        4.39452307       0.08772601       0.95299380
H        3.13028507       1.38139601       1.12698380
H        1.87097911      -2.23809399      -0.79208620
H        2.66156237      -1.00227399      -1.84433620
C       -1.22686293      -1.17056399       2.00929380
C       -1.30686293      -0.32756399       0.78329380
C       -1.87686293      -0.83256399      -0.38070620
C       -0.83086293       0.97843601       0.80429380
C       -1.96986293      -0.03256399      -1.51470620
C       -0.91386293       1.76843601      -0.32770620
C       -1.49186293       1.26943601      -1.48670620
H       -0.29886293      -0.95356399       2.54129380
H       -1.18186293      -2.21456399       1.69629380
H       -2.24386293      -1.84856399      -0.40970620
H       -0.38786293       1.38143601       1.70229380
H       -2.37186293      -0.44156399      -2.42770620
H       -0.55586293       2.77743601      -0.30170620
H       -1.55586293       1.88943601      -2.37170620
H       -2.08373193      -1.02101399       2.68265380
