18
Properties=species:S:1:pos:R:3 pbc="F F F"
C        0.42780114      -1.17598675      -2.67277856
C       -0.30819886      -2.26598675      -3.45377856
H        0.48080114      -1.44598675      -1.61677856
H        1.44080114      -1.06898675      -3.05877856
H       -0.08319886      -0.21998675      -2.77877856
H       -0.40019886      -1.92798675      -4.48477856
H       -1.31489886      -2.47562675      -3.06311856
H        0.27427114      -3.19895675      -3.47111856
C       -0.59219886       0.86301325       0.36822144
C       -1.70019886       1.71201325       0.94722144
C        0.42980114       0.43801325       1.39822144
O        1.01880114       1.30001325       2.08422144
O        0.70680114      -0.77698675       1.46622144
H       -1.04619886      -0.01198675      -0.10277856
H       -0.05019886       1.40501325      -0.40777856
H       -1.28219886       2.47501325       1.60522144
H       -2.35519886       1.07401325       1.53722144
H       -2.28362886       2.20502325       0.15567144
