26
Properties=species:S:1:pos:R:3 pbc="F F F"
C        1.26885767      -0.32748246      -0.30786485
C        2.53385767      -0.97248246       0.26913515
C        0.13985767      -0.11148246       0.67913515
C        0.36885767       0.29051754       2.00213515
C       -1.17514233      -0.23148246       0.23513515
C       -0.70414233       0.49151754       2.87713515
C       -2.23914233      -0.03048246       1.10213515
C       -2.01014233       0.32751754       2.42413515
H        1.52585767       0.64051754      -0.73886485
H        0.90385767      -0.96148246      -1.11686485
H        2.96185767      -0.31748246       1.02513515
H        1.37085767       0.44951754       2.36213515
H       -1.37714233      -0.49048246      -0.79286485
H       -0.53014233       0.78751754       3.89913515
H       -3.25114233      -0.12848246       0.73713515
H       -2.83914233       0.47151754       3.09913515
H        3.25463767      -1.13341046      -0.54608485
H        2.31811767      -1.95559946       0.71291515
C        0.11785767      -0.28348246      -3.88586485
C        1.04185767       0.91251754      -4.11386485
H        0.70385767      -1.18948246      -3.74586485
H       -0.48214233      -0.12148246      -2.99086485
H       -0.54814233      -0.41148246      -4.73786485
H        1.78085767       0.91351754      -3.31186485
H        1.55879767       0.81299654      -5.07971485
H        0.48279767       1.85719354      -4.04290485
