24
Properties=species:S:1:pos:R:3 pbc="F F F"
C        1.67712627       1.99360926      -2.38801890
C        2.16812627       2.44460926      -3.77001890
H        1.35612627       0.95460926      -2.40801890
H        2.48412627       2.09160926      -1.66301890
H        0.83912627       2.61360926      -2.06901890
H        3.01912627       1.82660926      -4.04701890
H        1.37639227       2.29692926      -4.51924890
H        2.48959627       3.49642926      -3.75195890
C        0.72112627       0.78560926       3.11198110
C       -0.71887373       0.05260926      -0.35001890
C       -1.12687373      -1.26539074      -0.20001890
C       -0.12387373       0.72260926       0.72198110
C        0.07712627       0.07860926       1.94098110
C       -0.92587373      -1.91339074       1.01198110
C       -0.32087373      -1.24639074       2.06698110
O       -1.71787373      -1.92839074      -1.24301890
H       -0.87187373       0.55660926      -1.29301890
H        0.19612627       1.74860926       0.59598110
H       -1.22987373      -2.94239074       1.12798110
H       -1.97287373      -2.82539074      -1.00101890
H        1.06812627       1.77360926       2.80498110
H        1.59912627       0.20660926       3.40098110
H       -0.15187373      -1.76939074       2.99798110
H        0.05946127       0.88894926       3.98463110
