32
Properties=species:S:1:pos:R:3 pbc="F F F"
C        0.83212219      -0.03875066       2.79521186
C        1.08912219       0.38424934       1.37421186
C        1.39012219       1.63824934       0.94021186
C        1.17312219      -0.47175066       0.21321186
C        1.54112219       0.34624934      -0.89078814
C        0.97812219      -1.84775066      -0.00878814
C        1.71512219      -0.16375066      -2.17678814
C        1.15612219      -2.36275066      -1.30178814
C        1.52012219      -1.52375066      -2.37078814
N        1.66212219       1.62324934      -0.40678814
H        0.09212219      -0.84075066       2.80221186
H        0.42412219       0.80924934       3.34721186
H        1.45612219       2.51324934       1.58121186
H        1.94712219       2.44324934      -0.93178814
H        0.67212219      -2.49275066       0.80221186
H        1.99312219       0.48024934      -2.99978814
H        1.00812219      -3.41975066      -1.48178814
H        1.64712219      -1.94175066      -3.36078814
H        1.75402219      -0.38249066       3.28708186
C       -2.18587781      -1.00175066      -1.15178814
C       -2.35287781       0.72224934       0.61821186
N       -2.46087781      -0.53175066       0.20921186
N       -1.97787781       1.66724934      -0.21778814
N       -2.60487781       1.03024934       1.87121186
H       -2.70587781      -1.24675066       0.89021186
H       -1.73387781       1.42924934      -1.16278814
H       -1.86887781       2.61724934       0.09921186
H       -2.79287781       0.32324934       2.56521186
H       -2.51287781       1.98624934       2.17921186
H       -1.94687781      -2.06575066      -1.08978814
H       -1.30787781      -0.50875066      -1.57378814
H       -3.04223781      -0.88766066      -1.83268814
