26
Properties=species:S:1:pos:R:3 pbc="F F F"
C        1.52242762      -0.69733407      -1.81229591
C        0.83142762      -1.06333407      -3.13129591
C        2.50142762      -1.70433407      -1.21529591
H        2.01942762       0.24766593      -1.91629591
H        0.74342762      -0.54633407      -1.06929591
H        0.46542762      -2.08633407      -3.02629591
H        1.93642762      -2.58633407      -0.91129591
H        1.52274762      -0.98810407      -3.98359591
H       -0.03155238      -0.40447407      -3.30781591
H        3.26934762      -2.02816407      -1.93322591
H        2.98435762      -1.27771407      -0.32379591
C       -0.64557238      -1.80233407       1.61070409
C       -1.60257238       0.05966593       0.23270409
C       -0.70157238      -0.35633407       1.20870409
C       -1.69457238       1.41166593      -0.12129591
C        0.09042762       0.59066593       1.85470409
C       -0.88157238       2.35166593       0.50670409
C        0.00542762       1.94366593       1.50070409
H       -2.24557238      -0.66533407      -0.24529591
H       -2.42357238       1.73966593      -0.83929591
H        0.15742762      -1.94333407       2.33770409
H       -0.40457238      -2.39833407       0.72970409
H        0.77742762       0.28466593       2.63070409
H       -0.95557238       3.39866593       0.24570409
H        0.62142762       2.67366593       2.00870409
H       -1.58838238      -2.16191407       2.04866409
