34
Properties=species:S:1:pos:R:3 pbc="F F F"
C       -0.84875426      -0.72119583      -1.03723775
C       -0.88375426      -1.92819583      -1.98423775
C       -2.20975426      -0.18919583      -0.61423775
C       -3.02175426      -0.91919583       0.26076225
C       -2.65575426       1.06080417      -1.05923775
C       -4.26175426      -0.42219583       0.66976225
C       -3.88975426       1.56780417      -0.65123775
C       -4.69275426       0.82180417       0.20976225
O       -5.90275426       1.29980417       0.60476225
H       -0.31175426      -1.00919583      -0.13523775
H       -0.28975426       0.08780417      -1.50823775
H       -1.16775426      -2.80119583      -1.40223775
H       -2.68475426      -1.88119583       0.62776225
H       -2.03675426       1.64880417      -1.72323775
H       -4.87975426      -0.99719583       1.34376225
H       -4.22875426       2.53380417      -0.99423775
H       -6.36875426       0.67480417       1.16776225
H        0.09631334      -2.07932383      -2.46028775
H       -1.62533196      -1.76970183      -2.78106775
C        6.49524574      -0.83319583       0.04376225
C        2.69624574      -0.50419583      -0.04523775
C        2.47424574       0.49780417       0.90676225
C        3.99524574      -0.92119583      -0.32423775
C        5.09124574      -0.34019583       0.32176225
C        3.56524574       1.07380417       1.57076225
C        4.86524574       0.65080417       1.28176225
H        1.86924574      -0.96319583      -0.56023775
H        1.46624574       0.81280417       1.12676225
H        4.15124574      -1.70519583      -1.04723775
H        3.39424574       1.84680417       2.30576225
H        6.45024574      -1.92019583      -0.01323775
H        7.13724574      -0.58919583       0.89176225
H        5.69924574       1.09780417       1.80376225
H        6.96031174      -0.43956883      -0.87207775
