25
Properties=species:S:1:pos:R:3 pbc="F F F"
C       -2.54501572      -1.96954256      -1.36088198
C       -1.11501572       1.13245744      -0.13788198
C       -1.86101572      -0.64854256      -1.19288198
C       -1.19501572       0.11945744      -2.09288198
N       -1.80901572       0.00945744       0.02111802
N       -0.76001572       1.23845744      -1.41588198
H       -0.91401572       1.86745744       0.63411802
H       -0.24901572       2.01945744      -1.81488198
H       -1.04801572      -0.10954256      -3.14188198
H       -2.74801572      -2.14554256      -2.41788198
H       -3.50801572      -1.89854256      -0.85188198
H       -1.97486072      -2.81150256      -0.94133398
C        0.91398428      -1.22454256       2.48311802
C        1.90598428       0.32945744       0.82011802
N        1.44498428      -0.86354256       1.16211802
N        2.37898428       0.53445744      -0.39388198
N        1.91798428       1.31145744       1.69911802
H        1.42098428      -1.58454256       0.44911802
H        2.37898428      -0.21154256      -1.06988198
H        2.78498428       1.42345744      -0.63988198
H        1.59398428       1.14245744       2.63611802
H        2.28998428       2.21545744       1.45311802
H       -0.16801572      -1.07654256       2.47711802
H        1.34398428      -0.59954256       3.26211802
H        1.13125528      -2.27830256       2.71197702
