27
Properties=species:S:1:pos:R:3 pbc="F F F"
C       -2.53718623       0.26598310      -3.88838900
C       -0.60818623       0.55098310      -0.05338900
C       -0.18718623      -0.40501690      -0.98138900
C       -1.65618623       1.41198310      -0.37438900
C       -0.81418623      -0.49301690      -2.22638900
C       -2.27718623       1.31598310      -1.62038900
C       -1.86018623       0.36598310      -2.55238900
H       -0.14918623       0.62198310       0.91761100
H        0.58981377      -1.11001690      -0.74138900
H       -2.00118623       2.13698310       0.34961100
H       -0.49718623      -1.24801690      -2.93038900
H       -3.10618623       1.96598310      -1.84938900
H       -1.90018623      -0.28101690      -4.58338900
H       -2.65518623       1.27698310      -4.27738900
H       -3.52245623      -0.22197690      -3.85455900
C        2.60481377      -0.47601690       1.40561100
C        2.88081377       1.02498310       1.51361100
C        1.50381377      -0.90401690       2.35961100
O        0.95781377      -0.08801690       3.09861100
N        1.17281377      -2.19001690       2.35361100
H        2.31281377      -0.75901690       0.40161100
H        3.51281377      -1.02501690       1.65961100
H        3.20281377       1.26698310       2.52861100
H        1.97281377       1.57898310       1.28461100
H        0.46781377      -2.49901690       3.00961100
H        1.75581377      -2.84801690       1.86261100
H        3.67872377       1.30346310       0.80949100
