17
Properties=species:S:1:pos:R:3 pbc="F F F"
C       -0.35770944       1.28666721      -0.31811017
C       -0.33470944       2.21566721       0.89988983
O       -0.97470944       1.90866721      -1.44011017
H        0.66329056       1.00766721      -0.58411017
H       -0.90670944       0.37966721      -0.06811017
H       -1.35270944       2.37666721       1.25188983
H       -0.28370944       2.43566721      -1.87711017
H        0.11195656       3.18572321       0.63629983
H        0.27023356       1.75907721       1.69711983
C        0.63229056      -2.05533279       0.51588983
C        1.06329056      -3.51933279       0.47488983
H        0.35329056      -1.70733279      -0.47611017
H       -0.23370944      -1.95433279       1.17088983
H        1.44229056      -1.43733279       0.90588983
H        0.25529056      -4.11933279       0.05288983
H        1.21029056      -3.83833279       1.50688983
H        1.98745156      -3.68899279      -0.09707017
