26
Properties=species:S:1:pos:R:3 pbc="F F F"
C       -0.35122682      -2.74045399       1.00693824
C       -1.00822682       0.47254601      -1.72106176
C       -2.08022682      -0.08145399      -1.06506176
C        0.27777318      -0.04845399      -1.52306176
C       -1.86622682      -1.13245399      -0.17706176
C        0.48777318      -1.09745399      -0.63706176
C       -0.58022682      -1.63345399       0.04893824
H       -1.15722682       1.29854601      -2.40106176
H       -3.07722682       0.30454601      -1.22706176
H        1.11577318       0.39054601      -2.04606176
H       -2.71022682      -1.55845399       0.34793824
H        1.48477318      -1.47945399      -0.47206176
H       -0.86522682      -2.49345399       1.93493824
H        0.71377318      -2.82745399       1.22493824
H       -0.74128682      -3.70596299       0.65247324
C        1.04077318       2.21154601       1.02793824
C        2.36977318       2.44954601       0.33693824
C        1.10977318       1.16754601       2.09393824
H        0.70077318       3.14754601       1.47793824
H        0.29877318       1.91954601       0.28593824
H        2.69877318       1.50954601      -0.11506176
H        1.44677318       0.25254601       1.62193824
H        1.79877318       1.45654601       2.88893824
H        3.12891418       2.79271901       1.05522524
H        2.20832218       3.15688801      -0.48986276
H        0.10837348       0.98980801       2.51299424
