23
Properties=species:S:1:pos:R:3 pbc="F F F"
C       -2.72533167      -0.14722746      -0.11257015
C       -2.69333167       0.10777254       1.38942985
H       -3.61733167      -0.70622746      -0.39557015
H       -2.74033167       0.81577254      -0.62057015
H       -1.84333167      -0.71222746      -0.41257015
H       -1.77133167       0.63577254       1.63742985
H       -2.71461267      -0.85519746       1.92069985
H       -3.54153467       0.74048254       1.68981985
C        0.67166833       1.31877254      -2.27957015
C        0.81666833       0.50177254      -1.01757015
C        0.87866833      -0.88222746      -1.04657015
C        0.87666833       1.12777254       0.22342985
C        0.98266833      -1.61422746       0.14042985
C        0.97266833       0.39377254       1.40642985
C        1.01066833      -0.97422746       1.37342985
H        1.47666833       1.06677254      -2.97157015
H        0.78566833       2.37377254      -2.02157015
H        0.81966833      -1.41222746      -1.97857015
H        0.85066833       2.20577254       0.28042985
H        1.03666833      -2.68622746       0.10642985
H        1.01966833       0.90377254       2.35542985
H        1.10566833      -1.54422746       2.28542985
H       -0.29168167       1.17661254      -2.79119015
