25
Properties=species:S:1:pos:R:3 pbc="F F F"
C       -1.85472339      -1.55254765       1.96080429
C       -1.51372339      -1.22754765       3.41380429
O       -2.46472339      -2.82754765       1.85780429
H       -2.52572339      -0.78954765       1.56280429
H       -0.93672339      -1.55054765       1.37480429
H       -1.06672339      -0.23754765       3.42080429
H       -1.95572339      -3.31454765       1.17080429
H       -0.79746139      -1.95517965       3.82309429
H       -2.42533839      -1.16435165       4.02614429
C        2.08527661       2.21345235       1.24080429
C        0.43827661      -0.48554765      -0.85919571
C        1.04327661       0.18145235       0.19580429
C        0.23727661       0.16245235      -2.07119571
C        1.44127661       1.50645235       0.06980429
C        0.64527661       1.48045235      -2.22119571
C        1.24027661       2.15045235      -1.14919571
O       -0.35372339      -0.50054765      -3.11419571
H        0.13427661      -1.51454765      -0.74319571
H        1.21227661      -0.34154765       1.12680429
H       -0.60872339      -1.39754765      -2.87219571
H        0.49227661       1.98445235      -3.16419571
H        2.43227661       3.20145235       0.93380429
H        2.96327661       1.63445235       1.52980429
H        1.56027661       3.17645235      -1.27519571
H        1.42361161       2.31679235       2.11345429
