38
Properties=species:S:1:pos:R:3 pbc="F F F"
C       -0.79903467      -3.74164579       1.39155967
C        0.65096533      -1.24164579      -1.02344033
C       -0.28303467      -2.25964579      -0.71244033
C       -0.04403467      -2.68064579       0.64155967
C        0.98596533      -1.91864579       1.08955967
C        0.69296533      -0.62964579      -2.26744033
C       -0.21503467      -1.06364579      -3.22244033
C       -1.17803467      -2.67764579      -1.70344033
C       -1.13603467      -2.07764579      -2.94444033
N        1.41896533      -1.06164579       0.09755967
H        2.18196533      -0.39964579       0.20455967
H        1.40696533       0.15035421      -2.47744033
H        1.42296533      -1.98264579       2.07655967
H       -0.20803467      -0.62764579      -4.20544033
H       -1.90103467      -3.45164579      -1.49644033
H       -0.22403467      -4.66164579       1.38555967
H       -1.70203467      -3.92864579       0.81655967
H       -1.81703467      -2.40564579      -3.71144033
H       -1.07077467      -3.44605579       2.41565967
C        2.66796533       2.28935421       2.01855967
C       -0.84503467       1.47835421       0.99155967
C        0.38396533       2.14335421       0.76755967
C        1.28096533       1.78235421       1.82155967
C        0.57296533       0.98035421       2.64755967
C       -1.93103467       1.62835421       0.13455967
C       -1.76803467       2.42535421      -0.97644033
C        0.51296533       2.94435421      -0.36244033
C       -0.56203467       3.06535421      -1.22744033
N       -0.70303467       0.78835421       2.17155967
H       -1.46503467       0.45535421       2.73955967
H       -2.87703467       1.15235421       0.33455967
H        0.95996533       0.50235421       3.52755967
H       -2.59203467       2.54835421      -1.66444033
H        1.43596533       3.46735421      -0.55444033
H        2.56696533       3.27535421       2.47355967
H        3.12396533       2.44235421       1.04055967
H       -0.46903467       3.68935421      -2.10644033
H        3.34497533       1.69913421       2.65361967
