26
Properties=species:S:1:pos:R:3 pbc="F F F"
C        1.87776619       2.33286386      -1.29883454
C        2.07376619       1.02886386      -2.10083454
H        2.72176619       3.00486386      -1.45483454
H        0.96576619       2.83086386      -1.62783454
H        1.79576619       2.10286386      -0.23583454
H        1.19176619       0.40186386      -1.95083454
H        2.96006619       0.47859386      -1.75202454
H        2.15524619       1.24302386      -3.17670454
C       -1.47923381       1.33886386       0.32816546
C       -1.95523381       1.79286386       1.71316546
C       -0.78423381       0.00186386       0.31116546
C        0.40076619      -0.19513614       1.02316546
C       -1.29523381      -1.04113614      -0.45383454
C        1.04376619      -1.42813614       0.98916546
C       -0.65323381      -2.27613614      -0.48083454
C        0.51176619      -2.46713614       0.24016546
H       -2.32423381       1.33386386      -0.36283454
H       -0.76423381       2.07086386      -0.04683454
H       -1.20123381       1.53586386       2.45816546
H        0.83076619       0.61486386       1.59616546
H       -2.19423381      -0.89613614      -1.03383454
H        1.96876619      -1.56513614       1.51816546
H       -1.05923381      -3.08813614      -1.06583454
H        1.01076619      -3.42613614       0.20816546
H       -2.91775381       1.34062386       1.99430546
H       -2.04956381       2.88879386       1.70740546
