23
Properties=species:S:1:pos:R:3 pbc="F F F"
C        1.29516146      -3.01677612      -0.41321791
C        2.56016146      -3.37177612       0.37178209
H        0.57416146      -2.54677612       0.25578209
H        1.53316146      -2.32577612      -1.22121791
H        0.83116146      -3.91377612      -0.82021791
H        2.29416146      -4.09577612       1.14078209
H        3.31555146      -3.80796512      -0.29838791
H        2.98084146      -2.49028312       0.87774209
C        1.63416146       1.73222388      -0.61321791
C        0.03016146       0.28722388       0.70378209
C        0.24116146       1.31822388      -0.20421791
C       -1.25683854      -0.09677612       1.04578209
C       -0.85483854       1.93022388      -0.78921791
C       -2.34083854       0.51522388       0.45278209
C       -2.13783854       1.53122388      -0.46121791
H        0.87116146      -0.20177612       1.16778209
H       -1.41583854      -0.88777612       1.76478209
H        1.59316146       2.06522388      -1.65321791
H        2.29116146       0.86122388      -0.58521791
H       -0.71483854       2.72422388      -1.50921791
H       -3.34383854       0.19722388       0.69678209
H       -2.98683854       2.00322388      -0.92321791
H        2.06144146       2.54051388      -0.00157791
