20
Properties=species:S:1:pos:R:3 pbc="F F F"
C       -2.49240434      -2.51058694       0.43988147
C       -1.51640434      -1.79258694       1.35788147
O       -0.84840434      -0.85458694       0.89088147
O       -1.47140434      -2.16158694       2.55288147
H       -3.19640434      -3.08958694       1.04188147
H       -1.93440434      -3.21158694      -0.18411853
H       -3.05766434      -1.82792694      -0.21161853
C        2.23659566       2.12141306      -2.67111853
C        1.02359566       1.31041306      -0.64911853
N        1.83559566       2.16541306      -1.25411853
N        0.49759566       0.28741306      -1.29111853
N        0.74159566       1.46341306       0.63088147
H        2.28059566       2.86041306      -0.67111853
H        0.69859566       0.11641306      -2.26011853
H       -0.08840434      -0.33058694      -0.73011853
H        1.13059566       2.21341306       1.18188147
H        0.11059566       0.77041306       1.03488147
H        1.75059566       1.31041306      -3.21411853
H        3.31459566       1.95541306      -2.72511853
H        2.00491566       3.06928306      -3.17892953
