25
Properties=species:S:1:pos:R:3 pbc="F F F"
C       -1.61240295       1.31591455      -2.10410287
C       -0.88340295       0.74191455       0.28889713
C       -0.80140295       0.60591455      -1.06110287
C        0.68459705      -0.82008545      -0.04310287
C        0.18659705      -0.40408545      -1.30110287
C        1.65659705      -1.79408545       0.07689713
C        0.70559705      -0.99108545      -2.45710287
C        2.14759705      -2.35808545      -1.08510287
C        1.68959705      -1.95408545      -2.33510287
N        0.00459705      -0.10708545       0.90689713
H       -1.55840295       1.41891455       0.80289713
H        0.09859705      -0.18408545       1.91489713
H       -0.94840295       1.69491455      -2.88310287
H       -2.10740295       2.16491455      -1.64110287
H        1.99459705      -2.12008545       1.04689713
H        0.36059705      -0.67808545      -3.43110287
H        2.92059705      -3.10808545      -1.03010287
H        2.11259705      -2.39408545      -3.22710287
H       -2.35017995       0.63516655      -2.55384387
C       -1.24140295       2.87791455       4.02889713
O       -1.57640295       1.66391455       3.35889713
H       -2.26040295       1.21691455       3.87089713
H       -1.04640295       2.65691455       5.07789713
H       -0.34233095       3.32031455       3.57507913
H       -2.08677095       3.57856455       3.96227113
