17
Properties=species:S:1:pos:R:3 pbc="F F F"
C        0.41642996       0.48280479      -0.72653486
C        1.28742996       0.47880479      -1.97853486
S       -1.04457004       1.55280479      -0.86153486
H        0.08742996      -0.54019521      -0.53753486
H        1.02342996       0.81680479       0.11746514
H        0.70042996       0.09480479      -2.81753486
H       -1.40857004       1.52980479       0.42646514
H        2.18578196      -0.13498521      -1.81657386
H        1.63234596       1.49830479      -2.20581586
C       -0.28157004      -2.15019521       1.72246514
C        0.86842996      -2.15019521       2.73146514
H       -1.09857004      -2.77819521       2.07946514
H       -0.66057004      -1.13719521       1.60146514
H        0.06542996      -2.52919521       0.75946514
H        0.49142996      -1.78719521       3.68646514
H        1.24695196      -3.17434521       2.86501514
H        1.66213896      -1.46240521       2.40439514
