20
Properties=species:S:1:pos:R:3 pbc="F F F"
C       -0.77961566      -2.05508040       2.50495680
C        0.73638434      -2.12908040       2.71795680
H       -1.29761566      -2.47208040       3.36895680
H       -1.08661566      -1.01708040       2.36795680
H       -1.05061566      -2.63608040       1.62195680
H        1.20838434      -1.66508040       1.85995680
H        1.03316434      -3.18744840       2.76014680
H        1.02492434      -1.56734940       3.61862680
C        0.46138434       0.29991960      -0.24704320
C        1.90038434       0.67991960      -0.64804320
C       -0.52361566       0.96591960      -1.17004320
O       -0.89361566       2.12091960      -0.98704320
N       -0.89461566       0.23791960      -2.19804320
H        0.33238434      -0.78408040      -0.26304320
H        0.26038434       0.65691960       0.76395680
H        1.92238434       1.74991960      -0.83504320
H       -1.48361566       0.67791960      -2.88604320
H       -0.46361566      -0.65008040      -2.40204320
H        2.21765434       0.14288660      -1.55410320
H        2.61001434       0.45432760       0.16160680
