27
Properties=species:S:1:pos:R:3 pbc="F F F"
C        2.92152622       0.06013286      -3.50142606
C        2.65252622      -1.45086714      -3.43842606
H        3.74252622       0.26913286      -4.18942606
H        2.03552622       0.59713286      -3.83742606
H        3.18452622       0.42713286      -2.51442606
H        1.78752622      -1.60286714      -2.79042606
H        3.50810622      -1.96478714      -2.97596606
H        2.38212622      -1.85968714      -4.42318606
C        0.43652622       1.36613286      -1.06842606
C       -0.57847378       1.82213286      -2.12242606
C       -0.17547378       0.63913286       0.10257394
C        0.06752622      -0.72686714       0.30257394
C       -0.93147378       1.32013286       1.04657394
C       -0.43847378      -1.39486714       1.43357394
C       -1.44047378       0.65413286       2.14957394
C       -1.21447378      -0.70286714       2.33857394
O       -1.74247378      -1.32886714       3.42857394
H        1.15452622       0.70613286      -1.54442606
H        0.97952622       2.22613286      -0.68142606
H       -1.07247378       0.94113286      -2.53442606
H        0.67552622      -1.27186714      -0.40642606
H       -1.07647378       2.38713286       0.97857394
H       -0.22947378      -2.44486714       1.58057394
H       -2.01647378       1.19613286       2.88657394
H       -1.46847378      -2.24886714       3.48957394
H       -0.06415378       2.36515286      -2.92902606
H       -1.34739378       2.46736286      -1.67249606
