23
Properties=species:S:1:pos:R:3 pbc="F F F"
C       -2.44258733       1.57043130      -0.29760070
C        0.30241267      -1.67256870      -0.80160070
C        0.50541267      -0.49456870      -1.47460070
C       -0.77058733      -1.81756870       0.03939930
C       -0.39458733       0.55643130      -1.30360070
C       -1.68458733      -0.77456870       0.19839930
C       -1.48958733       0.41943130      -0.46760070
H        1.00441267      -2.47856870      -0.94060070
H        1.35141267      -0.39356870      -2.13760070
H       -0.91858733      -2.74956870       0.56839930
H       -0.22658733       1.48743130      -1.82760070
H       -2.53458733      -0.88956870       0.85439930
H       -3.45658733       1.18743130      -0.29860070
H       -2.34958733       2.21143130      -1.17560070
H       -2.27120033       2.17743130       0.60360930
C        2.73441267       0.56743130       1.10539930
C        2.65841267       1.16643130       2.46239930
H        3.42641267       1.15043130       0.50039930
H        3.10941267      -0.45556870       1.15539930
H        1.74541267       0.57143130       0.65239930
H        3.68941267       1.26443130       2.80239930
H        2.19151267       2.16083130       2.51870930
H        2.16556267       0.46501030       3.15167930
