17
Properties=species:S:1:pos:R:3 pbc="F F F"
C       -1.97708029      -1.53150359       2.01659566
O       -1.39608029      -0.77850359       0.96459566
H       -1.98208029      -0.03350359       0.78159566
H       -2.96608029      -1.87750359       1.71159566
H       -1.34851329      -2.40546959       2.24262566
H       -2.08055429      -0.89039859       2.90444566
C        0.72891971       0.57249641      -1.11240434
C        2.02091971      -0.21150359      -0.88240434
C        0.93391971       2.07249641      -1.23540434
H        0.20391971       0.19049641      -1.98940434
H        0.09891971       0.44749641      -0.25440434
H        2.75591971       0.12749641      -1.61440434
H       -0.03708029       2.56549641      -1.17940434
H        1.53191971       2.43649641      -0.39840434
H        1.83356071      -1.29033159      -0.98741634
H        2.41515671      -0.01765159       0.12605866
H        1.39730171       2.35603641      -2.19189934
