27
Properties=species:S:1:pos:R:3 pbc="F F F"
C        1.93948589      -0.24248142       1.35372736
C        2.47248589      -1.57248142       0.89472736
C        3.06048589       0.74451858       1.07172736
H        1.67648589      -0.26648142       2.40672736
H        1.08248589       0.03751858       0.75372736
H        3.09048589      -1.98848142       1.68372736
H        1.66748589      -2.25848142       0.62872736
H        2.64548589       1.69751858       0.74472736
H        3.10559589      -1.32931142       0.02867736
H        3.63734589       0.26531858       0.26699736
H        3.66042589       0.89034858       1.98211136
C       -1.76751411      -2.09548142       1.30772736
C       -1.61451411       0.37551858       0.78172736
C       -1.40051411      -0.94348142       0.39272736
C       -1.24751411       1.43551858      -0.03827264
C       -0.66551411       1.18751858      -1.27527264
C       -0.80751411      -1.18348142      -0.84927264
C       -0.44351411      -0.12448142      -1.68327264
O       -0.31351411       2.23151858      -2.07727264
H       -2.13251411       0.59851858       1.69872736
H       -1.42251411       2.45251858       0.28272736
H       -1.31951411      -1.96348142       2.28572736
H       -1.26751411      -2.97748142       0.90172736
H       -0.62851411      -2.20048142      -1.17527264
H       -0.33851411       3.06651858      -1.57927264
H        0.01248589      -0.31348142      -2.64427264
H       -2.84338411      -2.30749142       1.39468736
