24
Properties=species:S:1:pos:R:3 pbc="F F F"
C        1.60433314      -0.00231989       2.83670853
C        2.69533314      -0.03131989       3.97070853
H        1.84033314       0.77568011       2.10970853
H        1.55933314      -0.96431989       2.32770853
H        0.61633314       0.18768011       3.25470853
H        2.42133314      -0.80131989       4.68670853
H        2.74844314       0.92333011       4.51460853
H        3.67651314      -0.29301589       3.54785853
C       -1.20566686       2.50268011      -2.40529147
C       -0.29866686      -1.17031989      -0.29629147
C       -1.61666686      -0.87831989      -0.64829147
C        0.76133314      -0.26531989      -0.59129147
C       -1.91066686       0.32468011      -1.28329147
C        0.46033314       0.94268011      -1.23929147
C       -0.87866686       1.23568011      -1.62529147
O       -0.07166686      -2.34631989       0.36470853
H       -2.41266686      -1.56831989      -0.40629147
H       -0.87866686      -2.85331989       0.49570853
H        1.77333314      -0.50131989      -0.29929147
H       -2.93366686       0.54768011      -1.55729147
H        1.25233314       1.64068011      -1.47129147
H       -0.61766686       3.33468011      -2.01429147
H       -2.25366686       2.73868011      -2.22129147
H       -1.01890486       2.40074511      -3.48451747
