17
Properties=species:S:1:pos:R:3 pbc="F F F"
C        0.72389510       1.50268164      -2.08010471
C        0.97089510       2.93368164      -1.60410471
H        1.54889510       0.83768164      -1.83510471
H       -0.18910490       1.12268164      -1.62110471
H        0.59589510       1.46668164      -3.15710471
H        0.81089510       2.95068164      -0.52810471
H        2.00390910       3.24552164      -1.81773471
H        0.25201010       3.62084164      -2.07422471
C        0.99989510      -0.55731836       0.78189529
C       -1.18710490      -1.90631836       1.87989529
S       -0.72910490      -0.90931836       0.44389529
H        1.58989510      -1.46631836       0.66989529
H        1.37989510       0.20868164       0.11789529
H        1.06689510      -0.18931836       1.79889529
H       -0.37710490      -2.60531836       2.08189529
H       -2.09010490      -2.46731836       1.64289529
H       -1.36622590      -1.30949036       2.78637529
