24
Properties=species:S:1:pos:R:3 pbc="F F F"
C       -1.16879738       0.02336475      -2.15791626
C       -0.47079738       0.58136475       0.19108374
C       -0.84179738      -0.38863525      -0.74291626
C       -0.17879738       0.22936475       1.50808374
C       -0.24379738      -1.10163525       1.89708374
C       -0.89279738      -1.72663525      -0.33091626
C       -0.60579738      -2.08463525       0.99208374
O        0.04720262      -1.44463525       3.18308374
H       -0.39379738       1.61536475      -0.10891626
H        0.11220262       0.99136475       2.21908374
H       -0.79379738       1.03636475      -2.28591626
H       -0.52179738      -0.59363525      -2.80391626
H       -1.18279738      -2.49463525      -1.03491626
H        0.25520262      -0.67363525       3.72408374
H       -0.65779738      -3.11563525       1.31308374
H       -2.24696438       0.05863475      -2.37311626
C        2.23920262       2.34036475      -1.57791626
C        1.59920262       2.98536475      -2.79891626
H        1.79620262       2.64536475      -0.63291626
H        2.02620262       1.28336475      -1.68691626
H        3.30920262       2.54836475      -1.57691626
H        0.58520262       2.60936475      -2.90191626
H        1.53981862       4.07619475      -2.67024626
H        2.14625862       2.71542475      -3.71426626
