17
Properties=species:S:1:pos:R:3 pbc="F F F"
C       -2.04751933      -2.19624747      -0.25083712
N       -0.81151933      -1.90124747       0.53416288
H       -0.77851933      -2.43024747       1.40516288
H        0.01148067      -2.14424747      -0.01483712
H       -0.73351933      -0.90424747       0.72716288
H       -2.10251933      -3.26424747      -0.48483712
H       -2.02351933      -1.65624747      -1.20083712
H       -2.95505933      -1.91566747       0.30381288
C        1.69148067       1.92075253       0.66416288
C        0.67848067       1.08175253      -0.08483712
O       -0.48151933       0.97875253       0.31416288
N        1.10148067       0.47875253      -1.17883712
H        1.50248067       2.96575253       0.42216288
H        2.69048067       1.67675253       0.31016288
H        0.43448067      -0.05024747      -1.72183712
H        2.08148067       0.56475253      -1.44283712
H        1.64405067       1.78276053       1.75444288
