16
Properties=species:S:1:pos:R:3 pbc="F F F"
C       -0.73165962       0.54739672      -1.82933546
C       -1.98665962      -0.33760328      -2.02533546
H       -0.65165962       0.87239672      -0.79333546
H        0.16034038      -0.01960328      -2.09633546
H       -0.79565962       1.42339672      -2.47633546
H       -1.81365962      -1.29560328      -1.53733546
H       -2.87206962       0.14205172      -1.58263246
H       -2.14815962      -0.53224528      -3.09586546
C        1.01134038      -0.40860328       1.32966454
C        1.69634038       0.19939672       2.52966454
H        0.00434038      -0.01060328       1.22266454
H        1.58034038      -0.16860328       0.43166454
H        0.96534038      -1.49360328       1.42466454
H        1.82834038       1.26739672       2.35366454
H        2.69334038      -0.23460328       2.60766454
H        1.17593038       0.04262972       3.48601184
