26
Properties=species:S:1:pos:R:3 pbc="F F F"
C       -1.32296687       1.77506122       1.48275213
C       -2.56096687       2.67806122       1.61675213
C       -0.06096687       2.32006122       2.10675213
H       -1.51496687       0.82406122       1.95375213
H       -1.14896687       1.56406122       0.42675213
H       -2.35496687       3.58406122       1.04475213
H       -0.21996687       2.42306122       3.16875213
H        0.74103313       1.60406122       1.97675213
H       -2.72248687       2.96240122       2.66702213
H       -3.41250687       2.16843122       1.14224213
H        0.26245313       3.27783122       1.67307213
C       -0.61196687      -1.96493878      -2.75224787
C        1.50303313       0.31706122      -0.55624787
C        0.78203313      -0.17293878      -1.63924787
C        1.58203313      -0.43293878       0.61175213
C        0.12303313      -1.40293878      -1.55724787
C        0.93703313      -1.66093878       0.69975213
C        0.21903313      -2.14993878      -0.38324787
H        2.02103313       1.26406122      -0.63024787
H        0.74003313       0.40206122      -2.55524787
H        2.16703313      -0.07293878       1.44675213
H        1.00803313      -2.23893878       1.61075213
H       -0.59496687      -3.05393878      -2.69124787
H       -0.06396687      -1.69193878      -3.65024787
H       -0.27396687      -3.10993878      -0.31124787
H       -1.65513687      -1.63229878      -2.85785787
