16
Properties=species:S:1:pos:R:3 pbc="F F F"
C       -0.93614991      -0.63225350       1.25116909
C       -1.39014991      -1.14725350       2.67116909
H       -1.49514991       0.26574650       0.98016909
H        0.12285009      -0.38325350       1.30616909
H       -1.09014991      -1.40525350       0.49716909
H       -1.17914991      -0.37325350       3.40316909
H       -2.47249391      -1.33361750       2.60952909
H       -0.85348991      -2.07004650       2.93658909
C        1.46985009       1.00474650      -1.26083091
C        0.84985009       0.77474650      -2.66583091
H        1.24385009       2.00974650      -0.90083091
H        1.05685009       0.27574650      -0.56983091
H        2.55085009       0.86574650      -1.29483091
H        1.02285009      -0.25625350      -2.96983091
H        1.40544009       1.44821150      -3.33498091
H       -0.23361791       0.95664750      -2.61097091
