16
Properties=species:S:1:pos:R:3 pbc="F F F"
C       -1.10767886      -1.76662367      -0.36138948
C       -0.10467886      -2.84262367       0.11461052
H       -2.01467886      -2.24562367      -0.73438948
H       -1.37567886      -1.11362367       0.47161052
H       -0.66267886      -1.16962367      -1.15738948
H       -0.61567886      -3.40162367       0.89561052
H        0.18482114      -3.52451367      -0.69853948
H        0.80375114      -2.38913367       0.53782052
C        0.44532114       1.55137633       0.11661052
C        0.76832114       3.06237633       0.12461052
H       -0.51467886       1.38537633      -0.37238948
H        1.22232114       1.01137633      -0.42438948
H        0.39732114       1.17137633       1.13961052
H        1.72332114       3.21037633       0.62661052
H       -0.02553886       3.57517633       0.68752052
H        0.86209114       3.43677633      -0.90545948
