24
Properties=species:S:1:pos:R:3 pbc="F F F"
C       -0.70959138      -2.05820601       3.77861965
C        0.01640862       0.09379399       0.11861965
C       -0.94459138       0.54879399       1.02061965
C        0.74940862      -1.05420601       0.39961965
C       -1.17059138      -0.15320601       2.20261965
C        0.52040862      -1.74720601       1.59161965
C       -0.44359138      -1.30420601       2.49761965
O        0.23140862       0.78579399      -1.03538035
H       -0.35459138       1.56079399      -1.06538035
H       -1.52159138       1.43379399       0.80761965
H        1.49140862      -1.40120601      -0.30338035
H       -1.92459138       0.20079399       2.89261965
H        1.09040862      -2.64120601       1.80461965
H       -0.48759138      -3.11420601       3.62761965
H       -1.77259138      -1.97420601       4.01161965
H       -0.12163738      -1.68451201       4.62988965
C        0.67340862       1.65479399      -4.02738035
C        0.90440862       2.55779399      -5.24238035
H       -0.18159138       1.00179399      -4.19338035
H        1.54940862       1.03879399      -3.85738035
H        0.49540862       2.26479399      -3.14838035
H        0.94140862       1.91879399      -6.12338035
H        0.06914162       3.26544099      -5.34993035
H        1.87185242       3.07717399      -5.17683035
