27
Properties=species:S:1:pos:R:3 pbc="F F F"
C        1.22132912      -2.42258227      -1.36712504
C        2.60332912      -1.79958227      -1.22112504
C        0.54332912      -2.07558227      -2.68712504
H        1.28532912      -3.50758227      -1.28112504
H        0.59232912      -2.05358227      -0.55512504
H        2.50632912      -0.72158227      -1.36212504
H        3.22832912      -2.15758227      -1.99312504
H       -0.51067088      -2.34758227      -2.59112504
H        0.59732912      -0.99858227      -2.86212504
H        3.05310412      -1.96438227      -0.23090504
H        0.97132912      -2.62130227      -3.54094504
C        0.76432912       1.28741773       3.28487496
C        0.10432912       1.09341773      -0.46012504
C       -1.21767088       0.65441773      -0.48712504
C        0.74132912       1.29841773       0.76387496
C        0.06532912       1.07441773       1.96787496
C       -1.90267088       0.41441773       0.70587496
C       -1.25967088       0.62341773       1.92687496
O       -1.84367088       0.43641773      -1.68212504
H        0.61532912       1.27341773      -1.39112504
H        1.77032912       1.63141773       0.78287496
H       -2.92867088       0.07541773       0.68687496
H       -2.76067088       0.16341773      -1.56512504
H        0.05532912       1.68641773       4.01287496
H        1.54432912       2.03641773       3.14187496
H       -1.79567088       0.44541773       2.84987496
H        1.21983912       0.36778873       3.68084596
