26
Properties=species:S:1:pos:R:3 pbc="F F F"
C       -0.89813250      -0.43299042       3.59826043
C        0.73686750      -1.41099042       0.48226043
C       -0.54513250      -0.92499042       2.21126043
C       -1.35513250      -1.20799042       1.14626043
N        0.75686750      -1.06699042       1.76526043
N       -0.53313250      -1.49899042       0.08326043
H        1.64786750      -1.57699042      -0.08073957
H       -0.84913250      -1.74499042      -0.83373957
H       -2.43313250      -1.22099042       1.05826043
H       -0.28413250      -0.99999042       4.30126043
H       -1.94213250      -0.67799042       3.77126043
H       -0.82326250       0.65541958       3.73881043
C        0.28086750       1.34600958      -1.92273957
C        0.68886750       0.38500958      -3.06873957
C        1.54086750       1.97500958      -1.33573957
C       -0.72213250       2.42200958      -2.39873957
H       -0.23013250       0.78700958      -1.14173957
H        1.27686750      -0.43799042      -2.66073957
H        1.30186750       0.92800958      -3.79173957
H        2.06486750       2.53400958      -2.11073957
H        1.26986750       2.64800958      -0.52373957
H        2.19586750       1.19200958      -0.94973957
H       -1.62913250       1.94300958      -2.77173957
H       -0.99013250       3.07500958      -1.56573957
H       -0.27713250       3.01900958      -3.19473957
H       -0.15417250      -0.09764042      -3.58479957
