20
Properties=species:S:1:pos:R:3 pbc="F F F"
C        0.41243591      -0.75522373       1.46031943
C        0.08643591      -0.80122373       2.94231943
C        1.67143591      -1.53822373       1.15531943
H       -0.41156409      -1.17522373       0.88931943
H        0.54743591       0.28177627       1.15531943
H       -0.38056409       0.14477627       3.22331943
H        1.00543591      -0.89622373       3.52231943
H        1.66843591      -2.45822373       1.74131943
H        1.65043591      -1.81422373       0.09831943
H       -0.60528409      -1.61759373       3.19738943
H        2.56364591      -0.91840373       1.32790943
C       -1.65056409       1.64277627      -1.01468057
C       -0.52956409       0.69877627      -1.40668057
O       -0.73156409      -0.50822373      -1.51868057
N        0.66143591       1.22777627      -1.61768057
H       -1.24656409       2.63077627      -0.82968057
H       -2.08756409       1.27577627      -0.08668057
H        1.41243591       0.61777627      -1.88268057
H        0.84143591       2.20077627      -1.34968057
H       -2.42050409       1.70771627      -1.79761057
