16
Properties=species:S:1:pos:R:3 pbc="F F F"
C        1.77354708       0.22522860       0.14950586
C        2.39754708       1.62922860       0.09950586
H        2.55654708      -0.53277140       0.17750586
H        1.13354708       0.10222860       1.02150586
H        1.14554708       0.05522860      -0.72449414
H        1.58854708       2.34322860      -0.07249414
H        3.10374708       1.71230860      -0.73976714
H        2.87727708       1.89168860       1.05395486
C       -1.58945292      -1.51277140      -0.13549414
C       -2.57245292      -0.33877140      -0.11449414
H       -0.76945292      -1.30477140      -0.82149414
H       -1.19345292      -1.67577140       0.86750586
H       -2.11045292      -2.41677140      -0.45549414
H       -3.40245292      -0.61477140       0.53450586
H       -2.94136292      -0.15503140      -1.13437114
H       -2.09752292       0.56047860       0.30477286
