19
Properties=species:S:1:pos:R:3 pbc="F F F"
C        0.54472498       1.18821235      -1.63596815
C        0.57072498      -0.34278765      -1.60296815
C        1.09272498       1.85821235      -0.33596815
H        1.12872498       1.53521235      -2.48996815
H       -0.47527502       1.54521235      -1.76596815
H        0.67972498      -0.79978765      -0.65196815
H        1.57972498      -0.55978765      -1.95996815
H        1.23072498       2.92521235      -0.51896815
H        0.33272498       1.74621235       0.43803185
H       -0.05700502      -0.83118265      -2.36285315
H        2.04668498       1.41827035      -0.00975215
C       -0.79327502      -0.88178765       1.19103185
C       -1.41527502      -1.74178765       2.28203185
H       -1.14327502       0.15321235       1.19203185
H        0.26872498      -0.83078765       1.43203185
H       -0.89927502      -1.42178765       0.26003185
H       -0.68527502      -2.47278765       2.63503185
H       -2.29690502      -2.27948665       1.90306785
H       -1.70555502      -1.08171465       3.11271985
