19
Properties=species:S:1:pos:R:3 pbc="F F F"
C        1.00087202      -1.42471653      -0.13269903
C        1.63987202      -0.26171653       0.61030097
C        1.81387202      -1.52271653      -1.41769903
H       -0.05912798      -1.25871653      -0.32469903
H        1.13487202      -2.33671653       0.45030097
H        1.26687202       0.67928347       0.20830097
H        1.45387202      -0.31271653       1.68330097
H        1.80787202      -2.54371653      -1.80069903
H        2.71034202      -0.35810653       0.37620397
H        2.81880202      -1.20715653      -1.10062903
H        1.43452202      -0.81851653      -2.17280903
C       -1.51912798       1.29328347       0.24530097
C       -2.88312798       1.81628347       0.68930097
H       -1.59112798       0.86428347      -0.75569903
H       -0.79312798       2.10428347       0.22430097
H       -1.18112798       0.52828347       0.94530097
H       -3.18112798       2.58728347      -0.01169903
H       -3.60780798       0.98951547       0.65335497
H       -2.83761198       2.26930747       1.69064897
