25
Properties=species:S:1:pos:R:3 pbc="F F F"
C       -2.29305659      -2.84974197      -2.52467185
C        0.57494341      -0.12674197      -0.75867185
C        0.20294341      -1.27974197      -0.07467185
C        0.05694341       0.12325803      -2.02067185
C       -0.72805659      -2.14774197      -0.62967185
C       -0.84605659      -0.77074197      -2.58667185
C       -1.26905659      -1.90974197      -1.89367185
O        1.46594341       0.72425803      -0.16567185
H        1.85894341       0.33725803       0.62132815
H        0.61494341      -1.49674197       0.90232815
H        0.37694341       1.00025803      -2.56567185
H       -1.00405659      -3.02874197      -0.07067185
H       -1.19405659      -0.59674197      -3.58867185
H       -1.79105659      -3.73374197      -2.89767185
H       -2.75405659      -2.35374197      -3.38067185
H       -3.08481659      -3.15167197      -1.82327685
C        0.93894341       2.26925803       2.54432815
C       -0.48805659       1.99725803       3.04432815
O        1.76794341       2.75425803       3.58832815
H        1.36294341       1.32625803       2.21032815
H        0.92194341       2.97325803       1.70932815
H       -1.02005659       1.50925803       2.22632815
H        1.69494341       3.72625803       3.56332815
H       -0.99844659       2.94186803       3.28352815
H       -0.43102659       1.27612803       3.87301815
