19
Properties=species:S:1:pos:R:3 pbc="F F F"
C       -1.21771337      -0.25356407       0.80077488
C       -1.66271337      -1.60756407       1.28177488
C       -1.57171337       0.68343593       1.92677488
H       -1.78171337       0.01943593      -0.09322512
H       -0.15071337      -0.24156407       0.58877488
H       -1.92971337      -2.23156407       0.42777488
H       -0.87071337      -2.07156407       1.87077488
H       -1.69971337       1.70843593       1.57277488
H       -0.79271337       0.65143593       2.68877488
H       -2.52441337      -1.38012807       1.92655488
H       -2.49795337       0.26784993       2.35028488
C        1.69728663       0.34043593      -1.45122512
C        2.67528663       0.81743593      -2.51622512
H        1.52228663      -0.73156407      -1.54322512
H        2.11128663       0.54643593      -0.46522512
H        0.75128663       0.87243593      -1.55022512
H        3.58328663       0.21543593      -2.46622512
H        2.94828663       1.84243593      -2.26522512
H        2.27930663       0.76865593      -3.54132512
