16
Properties=species:S:1:pos:R:3 pbc="F F F"
C        1.79774778      -0.95948566      -0.16316595
C        0.98074778      -1.68848566      -1.24516595
H        2.78974778      -0.73248566      -0.55616595
H        1.31974778      -0.02148566       0.10483405
H        1.91774778      -1.58848566       0.72083405
H        0.75474778      -0.99248566      -2.04516595
H        1.51972778      -2.53627566      -1.69322995
H        0.03569778      -2.06478566      -0.82649995
C       -1.07925222       0.79851434       1.15983405
C       -1.70025222       1.84851434       0.25483405
H       -1.77725222       0.53251434       1.95583405
H       -0.85325222      -0.08048566       0.58983405
H       -0.16325222       1.19051434       1.60383405
H       -0.96425222       2.12251434      -0.50116595
H       -1.98612122       2.73637434       0.83791675
H       -2.58126522       1.44580434      -0.26635935
