24
Properties=species:S:1:pos:R:3 pbc="F F F"
C        1.59487210      -3.15267825      -0.24699244
C        2.75787210      -4.12267825      -0.39799244
H        0.64987210      -3.63067825      -0.50199244
H        1.54687210      -2.83167825       0.79200756
H        1.74887210      -2.27667825      -0.87699244
H        2.55187210      -5.01667825       0.19300756
H        3.62687210      -3.63567825       0.02900756
H        2.97272210      -4.40507825      -1.43919044
C       -0.34512790      -0.81767825       2.36700756
C        0.64987210       0.51732175       0.47700756
C       -0.48112790       0.11032175       1.18900756
C        0.53787210       1.39432175      -0.59899244
C       -1.73412790       0.59832175       0.80700756
C       -0.71412790       1.87232175      -0.97599244
C       -1.85412790       1.47932175      -0.27499244
O       -0.81412790       2.72632175      -2.03599244
H        1.62487210       0.15132175       0.76300756
H        1.41587210       1.71932175      -1.12999244
H        0.54187210      -1.43667825       2.24300756
H       -1.21212790      -1.48067825       2.38500756
H       -2.61912790       0.29932175       1.35400756
H       -2.82312790       1.85732175      -0.56299244
H       -1.72912790       2.97732175      -2.20499244
H       -0.28178790      -0.28863825       3.32935256
