19
Properties=species:S:1:pos:R:3 pbc="F F F"
C        1.24127501      -2.06506283      -1.12261757
C        0.69527501      -1.37206283      -2.39861757
H        2.22827501      -2.48106283      -1.31661757
H        1.32327501      -1.34206283      -0.31161757
H        0.57527501      -2.86306283      -0.81861757
H       -0.28372499      -0.95006283      -2.18961757
H        0.62728501      -2.11997883      -3.20235757
H        1.38035501      -0.56112683      -2.68680757
C       -0.24872499       0.85093717       0.90338243
C       -1.27172499       0.31093717       1.91138243
C       -0.42972499       2.32793717       0.76338243
H        0.77027501       0.63593717       1.22038243
H       -0.42472499       0.35493717      -0.04961757
H       -2.23172499       0.21493717       1.42038243
H       -1.48972499       2.57093717       0.85738243
H        0.10527501       2.83793717       1.56538243
H       -1.37031499       0.99348517       2.76835843
H       -0.93394499      -0.67454883       2.26454543
H       -0.11350499       2.75594717      -0.19932757
