20
Properties=species:S:1:pos:R:3 pbc="F F F"
C       -0.07642051      -1.78029038      -2.04916302
C        0.89857949      -1.95229038       0.29483698
N        0.24557949      -1.29529038      -0.67116302
N        1.39757949      -3.16529038       0.10883698
N        1.02857949      -1.39129038       1.49283698
H       -0.06642051      -0.34729038      -0.43316302
H       -1.07342051      -1.41829038      -2.31516302
H       -0.10942051      -2.85929038      -2.09316302
H        1.69957949      -3.36529038      -0.83416302
H        1.86357949      -3.62129038       0.88583698
H        0.77957949      -0.41529038       1.59883698
H        1.52057949      -1.86029038       2.23983698
H        0.63350949      -1.39052038      -2.79353302
C       -1.05842051       3.12370962      -1.07416302
C       -0.87642051       2.34470962       0.26283698
O       -0.74842051       1.08070962       0.33383698
O       -0.87842051       3.07470962       1.27583698
H       -0.16942051       3.73670962      -1.23516302
H       -1.92742051       3.78270962      -1.00616302
H       -1.19714051       2.43615962      -1.92153302
