23
Properties=species:S:1:pos:R:3 pbc="F F F"
C        0.54663788      -2.55871253      -1.20439047
C        0.40363788      -0.13171253      -0.55739047
C        0.87663788      -1.40971253      -0.28839047
C        0.74663788       0.92928747       0.27360953
C        1.68663788      -1.60671253       0.82560953
C        1.54763788       0.72428747       1.38060953
C        2.01963788      -0.54771253       1.66460953
H       -0.21036212       0.06028747      -1.42539047
H        0.37363788       1.91828747       0.06360953
H        1.16663788      -3.40971253      -0.91639047
H        0.82863788      -2.29371253      -2.22439047
H        2.06463788      -2.59371253       1.05060953
H        1.80263788       1.55328747       2.02660953
H        2.64263788      -0.71871253       2.53260953
H       -0.50589212      -2.87790253      -1.18725247
C       -2.80336212       2.00828747      -0.36039047
C       -3.99936212       2.22828747      -1.30639047
H       -2.68336212       0.95628747      -0.11539047
H       -1.89036212       2.36128747      -0.83539047
H       -2.96136212       2.56128747       0.55560953
H       -3.80936212       1.68328747      -2.22839047
H       -4.92588212       1.84247747      -0.85615847
H       -4.10272212       3.29948747      -1.53407547
