16
Properties=species:S:1:pos:R:3 pbc="F F F"
C       -0.93487339      -0.25531401      -1.63018547
C       -0.87587339      -1.42931401      -2.59718547
H       -0.85587339      -0.62631401      -0.60818547
H       -0.11687339       0.43568599      -1.83518547
H       -1.88287339       0.27168599      -1.74618547
H       -1.03287339      -1.04031401      -3.60418547
H       -1.67353039      -2.15391401      -2.37649247
H        0.12174261      -1.89246401      -2.58133847
C        1.10412661       0.34768599       1.56281453
C        0.70412661       1.32768599       2.67381453
H        0.89512661      -0.68131401       1.85781453
H        0.54912661       0.57968599       0.65781453
H        2.16812661       0.44468599       1.33981453
H        0.73512661       2.33468599       2.25381453
H        1.43916001       1.29349599       3.49146793
H       -0.31667239       1.14468599       3.04053013
