23
Properties=species:S:1:pos:R:3 pbc="F F F"
C       -0.40525879      -2.18975005      -2.21054468
C        0.19374121       1.53624995      -0.18054468
C        1.28874121       0.87624995      -0.70254468
C       -1.04925879       0.97624995      -0.30754468
C        1.10474121      -0.35375005      -1.38954468
C       -1.23025879      -0.22175005      -0.98354468
C       -0.16925879      -0.89675005      -1.52354468
H        0.31874121       2.47424995       0.34445532
H        2.27874121       1.29824995      -0.59654468
H       -1.90625879       1.48024995       0.11645532
H        1.96074121      -0.86575005      -1.80754468
H       -2.22625879      -0.63075005      -1.06854468
H        0.07174121      -2.14575005      -3.19154468
H       -1.47225879      -2.34875005      -2.36754468
H        0.01829121      -3.03172105      -1.64336468
C        0.57074121       0.81924995       3.48845532
C       -0.28925879      -0.35075005       3.03045532
H        1.59374121       0.51524995       3.69045532
H        0.59674121       1.57124995       2.70145532
H        0.10674121       1.25424995       4.36545532
H        0.14374121      -0.74575005       2.11445532
H       -0.34268879      -1.13555105       3.79937532
H       -1.31656879      -0.01600705       2.82412532
