18
Properties=species:S:1:pos:R:3 pbc="F F F"
C       -0.81742517       3.13259873       1.93928979
O        0.18857483       2.17659873       1.84628979
H        0.99157483       2.47459873       2.29628979
H       -1.21042517       3.34159873       0.94528979
H       -0.41742517       4.05359873       2.36628979
H       -1.61982517       2.74483373       2.58410979
C        0.05657483       0.08159873      -2.66771021
C        0.35057483      -0.17940127      -0.07771021
C        0.14457483      -0.64340127      -1.34471021
C       -0.02542517      -2.32640127       0.07128979
N        0.27457483      -1.25640127       0.78128979
N       -0.13742517      -1.97940127      -1.22071021
H        0.64757483       0.81659873       0.15928979
H        0.35557483      -1.22040127       1.80228979
H       -0.81042517      -0.31640127      -3.19471021
H        0.90957483      -0.10040127      -3.30371021
H       -0.19242517      -3.31740127       0.47428979
H       -0.08368517       1.16607873      -2.54841721
