27
Properties=species:S:1:pos:R:3 pbc="F F F"
C        1.24081816      -0.38112075       0.57305374
C        1.55681816       0.26487925       1.92505374
C       -0.20118184      -0.21012075       0.13805374
C       -0.57118184       0.81787925      -0.74294626
C       -1.19518184      -1.08212075       0.59905374
C       -1.91518184       0.97187925      -1.14694626
C       -2.53718184      -0.93812075       0.22505374
C       -2.90018184       0.09087925      -0.65894626
O       -4.20218184       0.21887925      -1.06994626
H        1.87381816       0.05187925      -0.19594626
H        1.47081816      -1.44512075       0.62505374
H        2.59681816       0.04287925       2.16005374
H        0.17981816       1.48887925      -1.13594626
H       -0.88218184      -2.00912075       0.99705374
H       -2.18518184       1.75987925      -1.83594626
H       -3.27718184      -1.65512075       0.54705374
H       -4.31218184       0.95587925      -1.68294626
H        0.87939816      -0.12783075       2.69763274
H        1.45653816       1.35921925       1.87636774
C        4.72781816      -0.62312075      -0.22294626
C        5.10181816       0.73787925       0.36405374
H        5.49981816      -0.94012075      -0.92094626
H        4.64981816      -1.36012075       0.57605374
H        3.79081816      -0.58312075      -0.76694626
H        4.44781816       0.95587925       1.20805374
H        4.95526816       1.49717925      -0.41823826
H        6.14580816       0.71969925       0.71011174
