20
Properties=species:S:1:pos:R:3 pbc="F F F"
C        1.35230475      -2.95377369      -1.63075958
C        0.59230475      -1.70377369      -1.27175958
O       -0.62669525      -1.79977369      -0.98875958
O        1.27430475      -0.67277369      -1.17875958
H        0.66530475      -3.74577369      -1.92675958
H        1.86630475      -3.29277369      -0.72775958
H        2.10016475      -2.79598869      -2.42184458
C        1.37030475       2.02322631       1.16824042
C       -0.97869525       1.28522631       0.96824042
N       -1.82169525       0.45122631       0.37524042
N        0.29930475       1.16822631       0.67724042
N       -1.41769525       2.17422631       1.83824042
H       -1.42769525      -0.27777369      -0.22575958
H       -2.81169525       0.43622631       0.55324042
H        0.55130475       0.46522631      -0.01975958
H       -0.76769525       2.76122631       2.34724042
H       -2.40569525       2.29522631       1.97724042
H        0.98730475       3.02722631       1.35224042
H        2.12530475       2.11022631       0.38424042
H        1.85553475       1.62032631       2.06947842
