16
Properties=species:S:1:pos:R:3 pbc="F F F"
C       -1.93132961      -0.60030780       0.80750248
C       -1.51432961      -2.02330780       0.41050248
H       -1.06532961       0.06269220       0.82650248
H       -2.66532961      -0.19630780       0.11550248
H       -2.39832961      -0.59630780       1.79350248
H       -2.37232961      -2.68230780       0.54450248
H       -0.68619961      -2.36383780       1.04944428
H       -1.20323961      -2.06129780      -0.64390752
C        1.15467039       0.88569220      -0.88949752
C        2.29767039       1.73569220      -0.33049752
H        1.08567039      -0.02530780      -0.29749752
H        0.20967039       1.42669220      -0.83849752
H        1.31167039       0.62969220      -1.93749752
H        2.37667039       2.63769220      -0.93349752
H        3.24464039       1.17709220      -0.36554352
H        2.08282039       2.01809220       0.71069998
