20
Properties=species:S:1:pos:R:3 pbc="F F F"
C       -1.96541799      -3.05185017       0.69917514
C       -1.07141799      -2.01085017       0.02417514
O       -1.57241799      -1.31385017      -0.88882486
O        0.12258201      -1.87685017       0.37817514
H       -2.23641799      -3.80885017      -0.04082486
H       -2.89241799      -2.58585017       1.03217514
H       -1.50040899      -3.57051417       1.55049514
C        2.19258201       1.29214983       1.43817514
C        0.57558201       1.72414983      -0.40082486
N       -0.35541799       1.26614983      -1.21282486
N        1.15358201       0.90514983       0.47017514
N        0.92058201       2.99614983      -0.47182486
H       -0.67341799       0.29814983      -1.11882486
H       -0.78941799       1.86814983      -1.89182486
H        0.85858201      -0.07085017       0.44917514
H        1.65558201       3.35014983       0.11517514
H        0.48458201       3.60614983      -1.14682486
H        2.93758201       1.93214983       0.96017514
H        2.71158201       0.39314983       1.77817514
H        1.77400201       1.80926473       2.31417514
