26
Properties=species:S:1:pos:R:3 pbc="F F F"
C       -1.86449737      -1.74552923       0.23811847
C       -0.10449737      -0.80352923       1.70211847
N       -1.29549737      -0.72252923       1.12611847
N        0.66350263      -1.85452923       1.50411847
N        0.31950263       0.16947077       2.48311847
H       -1.85749737       0.09647077       1.32611847
H        0.31650263      -2.67152923       1.00911847
H        1.57050263      -1.90252923       1.94211847
H       -0.28949737       0.94047077       2.71711847
H        1.20450263       0.09147077       2.96111847
H       -1.93049737      -2.71152923       0.74111847
H       -1.20049737      -1.86152923      -0.62188153
H       -2.85371737      -1.44897923      -0.14069153
C        0.86050263      -0.26652923      -2.88188153
C        0.33350263       1.30747077      -1.05988153
N       -0.02349737       0.64547077      -2.14988153
N        1.54550263       1.15847077      -0.56088153
N       -0.51849737       2.11647077      -0.46788153
H       -0.96149737       0.79447077      -2.50488153
H        2.18650263       0.50147077      -0.97388153
H        1.81950263       1.65647077       0.27311847
H       -1.43149737       2.27747077      -0.86888153
H       -0.23249737       2.67847077       0.31911847
H        1.17550263      -1.08652923      -2.23188153
H        1.74250263       0.28847077      -3.21088153
H        0.37396263      -0.69433923      -3.77085153
