22
Properties=species:S:1:pos:R:3 pbc="F F F"
C       -0.20962533      -1.76523048       0.49332753
C       -0.83062533      -3.14823048       0.71832753
C        1.13137467      -1.83123048      -0.28967247
H       -0.91762533      -1.15023048      -0.06467247
H       -0.03962533      -1.28223048       1.45432753
H       -0.05962533      -3.80323048       1.11632753
H        0.93537467      -2.25923048      -1.27167247
H        1.50737467      -0.82023048      -0.43867247
H       -1.21234533      -3.55098048      -0.23145247
H       -1.63024533      -3.05170048       1.46751753
H        1.92476467      -2.41326048       0.20203753
C       -0.26562533       1.81976952      -0.59867247
C       -0.54762533       2.17876952       0.83932753
C        0.68537467       2.73876952      -1.16367247
H       -1.19062533       1.82476952      -1.17767247
H        0.15537467       0.82076952      -0.63567247
H       -1.59162533       2.47076952       0.95632753
H       -0.29762533       1.34076952       1.49332753
H        0.15237467       3.43076952      -1.81967247
H        1.44737467       2.21776952      -1.73967247
H        0.12216467       3.03265952       1.01893753
H        1.13246467       3.28078952      -0.31731247
