19
Properties=species:S:1:pos:R:3 pbc="F F F"
C        0.26026894      -1.45803422       1.50167865
C        0.65626894      -1.87003422       2.91067865
H        1.15026894      -1.39703422       0.87567865
H       -0.41173106      -2.20503422       1.07467865
H       -0.24573106      -0.49403422       1.52867865
H        1.17926894      -2.81903422       2.82667865
H        1.32133894      -1.11986422       3.36335765
H       -0.24109506      -2.02247422       3.52833565
C       -0.38673106       0.57996578      -1.54032135
C       -1.49273106       1.58696578      -1.87232135
C        0.93926894       1.20996578      -1.11232135
H       -0.74973106      -0.02303422      -0.70832135
H       -0.23073106      -0.10303422      -2.37232135
H       -1.66073106       2.23196578      -1.00632135
H        0.73726894       2.07696578      -0.48832135
H        1.47626894       0.48796578      -0.49932135
H       -2.42658506       1.06073578      -2.11929735
H       -1.20082906       2.23868578      -2.70901135
H        1.58461894       1.50539578      -1.95270735
