20
Properties=species:S:1:pos:R:3 pbc="F F F"
C       -0.18486950      -1.83718836      -1.26838408
C        0.04313050      -3.22918836      -1.84638408
C       -0.69686950      -0.82918836      -2.28638408
H       -0.90086950      -1.90118836      -0.44738408
H        0.75913050      -1.47218836      -0.86538408
H        0.67413050      -3.13218836      -2.73138408
H       -1.67586950      -1.15318836      -2.63938408
H       -0.82586950       0.13481164      -1.79238408
H       -0.91161750      -3.69710836      -2.12834808
H        0.58545850      -3.83749836      -1.10757108
H       -0.03890650      -0.69601836      -3.15779008
C        1.26213050       2.19181164       0.69461592
C        0.17213050       1.39681164       1.34861592
O        0.00913050       0.21681164       1.06661592
N       -0.56786950       2.02681164       2.24161592
H        1.07513050       3.25781164       0.82961592
H        1.22513050       1.99081164      -0.37538408
H       -1.17386950       1.45681164       2.83361592
H       -0.39886950       3.00481164       2.42861592
H        2.25539050       1.92761164       1.08657792
