24
Properties=species:S:1:pos:R:3 pbc="F F F"
C       -0.79352854       0.72694073       1.26973365
C       -1.01552854       0.60294073       2.77873365
C        0.64347146       0.93694073       0.89073365
C        1.27447146       2.04594073       0.42373365
C        2.77247146       0.44394073       0.62773365
N        1.60047146      -0.05305927       1.00673365
N        2.60347146       1.71294073       0.26773365
H       -1.16252854      -0.16905927       0.78373365
H       -1.37752854       1.56894073       0.89573365
H       -0.73252854       1.55694073       3.22873365
H        0.81447146       3.00794073       0.22773365
H        3.71447146      -0.09505927       0.61373365
H        3.34147146       2.32594073      -0.06526635
H       -0.41743854      -0.22066427       3.19581565
H       -2.07547854       0.40383773       2.99521265
C       -2.96052854      -2.02805927      -1.91526635
C       -1.57452854      -1.44405927      -1.74226635
O       -1.21652854      -0.47905927      -2.41526635
N       -0.76952854      -2.02805927      -0.86626635
H       -2.93252854      -2.66205927      -2.80226635
H       -3.66352854      -1.21605927      -2.09426635
H        0.14547146      -1.62505927      -0.71826635
H       -1.06752854      -2.83105927      -0.33926635
H       -3.29712854      -2.63150127      -1.05937635
