19
Properties=species:S:1:pos:R:3 pbc="F F F"
C       -0.01723461       1.07955800       1.92361505
C        0.08576539       0.91955800       3.43561505
H       -1.04323461       1.29455800       1.62861505
H        0.62376539       1.89855800       1.59661505
H        0.33176539       0.16555800       1.44861505
H        1.09276539       0.57255800       3.66861505
H       -0.64558461       0.19177800       3.81700505
H       -0.06283461       1.89163800       3.92854505
C        0.24176539      -0.20744200      -1.64638495
C       -1.17623461      -0.19144200      -2.25938495
C        0.87576539      -1.61444200      -1.56038495
H        0.88876539       0.39655800      -2.28038495
H        0.20676539       0.24455800      -0.66238495
H       -1.80623461      -0.89144200      -1.70638495
H       -1.11423461      -0.53844200      -3.29238495
H        0.29176539      -2.23444200      -0.87738495
H        0.85876539      -2.07244200      -2.55138495
H       -1.65517461       0.79851800      -2.23515495
H        1.91584539      -1.54819200      -1.20846495
