16
Properties=species:S:1:pos:R:3 pbc="F F F"
C       -1.78199993      -0.20145941      -0.06320345
C       -3.17999993      -0.72845941      -0.37720345
H       -1.80999993       0.41754059       0.83379655
H       -1.10599993      -1.04145941       0.09979655
H       -1.41399993       0.38554059      -0.90520345
H       -3.11599993      -1.35045941      -1.26520345
H       -3.88087993       0.10227059      -0.54650545
H       -3.55067993      -1.36018941       0.44347455
C        1.86200007       0.21954059      -0.14720345
C        3.10100007       0.71554059       0.58579655
H        1.96800007       0.38054059      -1.22120345
H        1.72400007      -0.84045941       0.05879655
H        0.98400007       0.75654059       0.21279655
H        2.97800007       0.50254059       1.64579655
H        3.21549007       1.79959059       0.43839455
H        3.99615007       0.18649059       0.22687655
