23
Properties=species:S:1:pos:R:3 pbc="F F F"
C       -1.01001155      -2.34300436      -0.71606577
C        0.34498845      -0.35300436      -0.08406577
C       -0.38801155      -1.45600436       0.31893423
C        0.90898845       0.52299564       0.83293423
C       -0.51501155      -1.68600436       1.68393423
C        0.78798845       0.27599564       2.18793423
C        0.07198845      -0.82200436       2.62093423
H        0.45398845      -0.14800436      -1.13606577
H        1.45798845       1.38799564       0.48693423
H       -1.33801155      -1.72700436      -1.55506577
H       -1.88201155      -2.80500436      -0.25406577
H       -1.07801155      -2.53900436       2.03493423
H        1.24398845       0.94399564       2.90293423
H       -0.02501155      -1.01900436       3.67793423
H       -0.35243755      -3.14511536      -1.08241577
C        0.15898845       2.63499564      -2.16706577
C       -0.21601155       2.66199564      -3.64106577
H       -0.11301155       3.58199564      -1.70406577
H       -0.38801155       1.83899564      -1.67506577
H        1.22198845       2.43499564      -2.03406577
H        0.14098845       1.73299564      -4.08506577
H        0.25244145       3.50723564      -4.16654577
H       -1.30949555       2.67583564      -3.75981577
