23
Properties=species:S:1:pos:R:3 pbc="F F F"
C        1.54317563       2.11777015      -0.54732162
C        0.84217563      -0.30122985      -0.41332162
C        1.22017563       0.87377015       0.24067838
C        0.63417563      -1.47222985       0.30367838
C        0.81017563      -1.47322985       1.67067838
C        1.37117563       0.86077015       1.62367838
C        1.17317563      -0.31922985       2.34367838
H        0.72517563      -0.30422985      -1.48832162
H        0.34617563      -2.38322985      -0.20132162
H        2.00517563       1.81277015      -1.48832162
H        2.29817563       2.68477015      -0.00032162
H        0.63917563      -2.38122985       2.22567838
H        1.66917563       1.75777015       2.14567838
H        1.30317563      -0.33422985       3.41767838
H        0.69335563       2.77699015      -0.77805162
C       -2.71282437      -0.07322985      -1.84532162
C       -4.00582437      -0.39722985      -2.58032162
H       -2.90282437       0.64877015      -1.05432162
H       -2.28282437      -0.97822985      -1.41732162
H       -1.99382437       0.36077015      -2.53832162
H       -3.76782437      -1.03022985      -3.43632162
H       -4.47721337       0.52896015      -2.94084162
H       -4.68820837      -0.96611985      -1.93170162
