31
Properties=species:S:1:pos:R:3 pbc="F F F"
C        1.99214958       2.41291970       0.36551878
C        0.35314958       0.76891970      -0.61048122
C        0.82614958       2.08191970      -0.52648122
C       -0.73785042       0.45491970      -1.41648122
C        0.19414958       3.08291970      -1.26948122
C       -1.35185042       1.45991970      -2.16348122
C       -0.89085042       2.77591970      -2.08948122
O       -2.40985042       1.18091970      -2.96948122
H        0.83514958      -0.01208030      -0.04248122
H       -1.12185042      -0.55208030      -1.45248122
H        2.32014958       1.50991970       0.87751878
H        1.64114958       3.10991970       1.12751878
H        0.54814958       4.10491970      -1.21048122
H       -1.36085042       3.55491970      -2.67348122
H       -2.67585042       1.93391970      -3.50448122
H        2.85008458       2.85809970      -0.15961522
C        1.05914958      -0.41608030       3.24351878
C       -0.74185042      -1.72708030       2.05951878
C        0.61714958      -1.46108030       2.24951878
C       -1.15785042      -2.66708030       1.11551878
C        1.55314958      -2.13008030       1.46051878
C       -0.21585042      -3.34408030       0.34151878
C        1.14114958      -3.07208030       0.51251878
H       -1.48185042      -1.20808030       2.65351878
H       -2.21285042      -2.87408030       0.98851878
H        0.22014958       0.24491970       3.45351878
H        1.82414958       0.20291970       2.77451878
H        2.60614958      -1.92508030       1.58851878
H       -0.53785042      -4.07708030      -0.38548122
H        1.87514958      -3.59408030      -0.08348122
H        1.46152158      -0.80918030       4.18880778
