28
Properties=species:S:1:pos:R:3 pbc="F F F"
C       -1.05507021      -1.72743747      -0.00606099
C       -1.67007021      -2.74943747      -0.95206099
C       -1.86707021      -0.45743747       0.04593901
O       -2.50207021      -0.06443747      -0.92706099
N       -1.85007021       0.20556253       1.18493901
H       -0.99207021      -2.16443747       0.99193901
H       -0.05107021      -1.47643747      -0.33606099
H       -1.77407021      -2.31643747      -1.94806099
H       -2.66607021      -3.00043747      -0.58406099
H       -2.37707021       1.06456253       1.24893901
H       -1.34507021      -0.14343747       1.98493901
H       -1.07517021      -3.67159747      -1.02769099
C        0.89392979       1.42356253      -1.08006099
C       -0.02907021       2.61456253      -1.26906099
C        2.01392979       0.18656253       0.71693901
N        1.24992979       1.18756253       0.31393901
N        2.53492979      -0.66943747      -0.13506099
N        2.23492979       0.03656253       1.99893901
H        0.38692979       0.54256253      -1.47306099
H        1.80092979       1.58656253      -1.66306099
H        0.47192979       3.49956253      -0.88106099
H       -0.95407021       2.46056253      -0.71206099
H        0.85592979       1.80456253       1.02893901
H        2.47792979      -0.49443747      -1.14206099
H        3.07392979      -1.46943747       0.17393901
H        1.81092979       0.68756253       2.64493901
H        2.80292979      -0.72543747       2.33593901
H       -0.25901021       2.73026253      -2.33852099
