14
Properties=species:S:1:pos:R:3 pbc="F F F"
C        1.33435978       1.57540740       0.18210740
C        1.13835978       1.06840740       1.60010740
H        1.24435978       2.66140740       0.15910740
H        2.33135978       1.29740740      -0.15789260
H        0.60835978       1.15340740      -0.50489260
H        1.33635978      -0.00459260       1.60010740
H        0.10132648       1.23785740       1.92544740
H        1.86806578       1.54574740       2.27068740
C       -1.41964022      -1.73959260      -1.29189260
O       -0.90064022      -0.73459260      -0.44389260
H       -1.07064022      -1.00959260       0.46710740
H       -1.01564022      -2.70059260      -1.00989260
H       -1.13964022      -1.52459260      -2.32289260
H       -2.51707822      -1.77140260      -1.22393260
