32
Properties=species:S:1:pos:R:3 pbc="F F F"
C        0.14285573      -0.39749435       2.66915204
C        0.07385573      -1.03449435       0.24815204
C        0.29585573      -1.40349435       1.58115204
C        0.15385573      -1.97249435      -0.77884796
C        0.46785573      -3.29049435      -0.45084796
C        0.57685573      -2.72449435       1.89315204
C        0.69985573      -3.67249435       0.87315204
O        0.54185573      -4.24949435      -1.41084796
H       -0.17814427      -0.01249435       0.01715204
H       -0.02814427      -1.68149435      -1.80384796
H        0.54785573       0.55650565       2.32915204
H        0.71785573      -0.71249435       3.53815204
H        0.59485573      -3.02049435       2.93115204
H        0.36385573      -3.90349435      -2.29084796
H        0.90885573      -4.70749435       1.10315204
H       -0.91472427      -0.26449235       2.94087204
C       -3.06814427       2.55550565       0.56015204
C       -1.48614427       1.98550565      -1.33184796
C       -1.68414427       2.44250565      -0.02784796
C       -0.18414427       1.92450565      -1.86084796
C        0.90285573       2.31550565      -1.04984796
C       -0.58414427       2.80750565       0.74315204
C        0.69185573       2.74450565       0.25115204
O        2.18685573       2.21750565      -1.48184796
H       -2.32714427       1.67450565      -1.92984796
H       -0.02114427       1.56850565      -2.86884796
H       -3.01814427       2.24750565       1.59715204
H       -3.68814427       1.81850565       0.06615204
H       -0.73414427       3.14550565       1.76115204
H        2.20385573       1.78750565      -2.33784796
H        1.53085573       3.02950565       0.85715204
H       -3.50925327       3.55750465       0.45328204
