28
Properties=species:S:1:pos:R:3 pbc="F F F"
C       -3.31566370       0.47886828      -1.84661802
C       -3.25966370       0.01086828      -0.43461802
C       -2.44066370      -0.92213172       1.34138198
C       -4.18666370       0.13786828       0.55238198
N       -2.16966370      -0.65713172       0.06838198
N       -3.64866370      -0.46213172       1.65938198
H       -1.78066370      -1.44813172       2.02138198
H       -2.33766370       0.86786828      -2.13161802
H       -4.02366370       1.30186828      -1.88361802
H       -4.08866370      -0.55813172       2.56838198
H       -5.15566370       0.61286828       0.47238198
H       -3.62495070      -0.29578172      -2.56372802
C        4.81833630       1.42286828       0.97738198
C        1.28233630      -0.40513172      -0.70161802
C        1.26433630       0.11686828       0.59438198
C        2.46833630      -0.37413172      -1.43161802
C        2.41933630       0.68486828       1.13238198
C        3.61133630       0.21186828      -0.90461802
C        3.60233630       0.74886828       0.39438198
O        0.17333630      -0.93013172      -1.29861802
H       -0.61566370      -0.85013172      -0.73261802
H        0.35133630       0.09586828       1.17238198
H        2.48633630      -0.81013172      -2.41761802
H        2.39133630       1.09786828       2.13138198
H        4.51533630       0.25386828      -1.49861802
H        4.48633630       2.12586828       1.74038198
H        5.29733630       2.01786828       0.19838198
H        5.56202330       0.74397828       1.42014198
