20
Properties=species:S:1:pos:R:3 pbc="F F F"
C        2.65880452      -0.88579704       0.47474257
C        3.40180452       0.21020296      -0.28425743
H        3.11380452      -1.85579704       0.31574257
H        2.69580452      -0.67279704       1.54174257
H        1.61880452      -0.91479704       0.16174257
H        4.45880452       0.16920296      -0.02025743
H        3.27492452       0.06612196      -1.36737443
H        3.02525452       1.20035696       0.01206557
C       -1.18619548       2.08920296       0.97674257
C       -1.12819548      -1.40979704      -0.00725743
C       -1.10919548       0.77520296       0.25274257
C       -1.01619548       0.51320296      -1.07725743
N       -1.17819548      -0.44179704       0.89874257
N       -1.03019548      -0.85779704      -1.21125743
H       -1.19219548      -2.47379704       0.19474257
H       -1.08719548      -1.36679704      -2.09225743
H       -0.99119548       1.24520296      -1.87325743
H       -0.70019548       2.84520296       0.36474257
H       -0.62719548       2.01120296       1.90874257
H       -2.21523548       2.40799096       1.19910237
