16
Properties=species:S:1:pos:R:3 pbc="F F F"
C       -1.13321801      -1.70518433      -0.07895677
C       -0.05821801      -2.77518433      -0.21795677
H       -0.90321801      -0.98718433       0.69904323
H       -1.28121801      -1.19318433      -1.02895677
H       -2.06821801      -2.19718433       0.18804323
H       -0.49821801      -3.63918433      -0.71495677
H        0.30007199      -3.08642433       0.77439323
H        0.77964199      -2.42172333      -0.83687177
C       -0.06321801       1.90281567       0.00404323
C        1.25678199       2.58681567       0.29704323
H       -0.89221801       2.45981567       0.44104323
H       -0.21021801       1.82281567      -1.07395677
H       -0.03321801       0.90781567       0.43304323
H        2.03778199       2.02681567      -0.21495677
H        1.47468199       2.58115567       1.37523023
H        1.26899199       3.61609567      -0.09082077
