20
Properties=species:S:1:pos:R:3 pbc="F F F"
C       -1.74456635       1.74999764       0.54984981
C       -2.83056635       1.44599764      -0.50815019
C       -2.02456635       1.16799764       1.93384981
H       -0.77556635       1.42799764       0.19584981
H       -1.69056635       2.83299764       0.66984981
H       -3.76156635       1.91999764      -0.19715019
H       -1.42856635       1.69899764       2.67684981
H       -3.08756635       1.27799764       2.14284981
H       -1.76156635       0.11099764       1.95684981
H       -2.53893735       1.84431764      -1.49115019
H       -3.00649235       0.36243964      -0.57852019
C        0.88843365      -0.51700236      -0.43115019
C        1.26443365       0.17699764      -1.74615019
S        2.03843365      -1.81000236       0.06784981
H        0.87243365       0.21799764       0.37484981
H       -0.10056635      -0.96500236      -0.53015019
H        0.45343365       0.84599764      -2.02715019
H        1.42143365      -2.17500236       1.19984981
H        1.39388065      -0.57560036      -2.53788019
H        2.16369765       0.79546364      -1.60895019
