19
Properties=species:S:1:pos:R:3 pbc="F F F"
C        1.62032774      -1.42415256       0.01242673
C        2.81232774      -2.36515256      -0.25557327
H        1.68032774      -1.02015256       1.02142673
H        1.64932774      -0.60315256      -0.70157327
H        0.68032774      -1.96315256      -0.11257327
H        2.67332774      -2.84715256      -1.21957327
H        2.91519774      -3.13956156       0.51883673
H        3.75039774      -1.79224556      -0.29798327
C       -1.29767226       0.85484744       0.34142673
C       -2.36367226       1.77384744       0.98842673
C       -0.87267226       1.22484744      -1.06657327
H       -0.40167226       0.92084744       0.96042673
H       -1.58567226      -0.19115256       0.42042673
H       -3.23267226       1.84884744       0.33542673
H       -0.44067226       2.22584744      -1.07957327
H       -0.11967226       0.51584744      -1.40557327
H       -1.93895226       2.77593944       1.14788673
H       -2.69612226       1.31762544       1.93253673
H       -1.72568226       1.18618544      -1.76002327
