23
Properties=species:S:1:pos:R:3 pbc="F F F"
C        1.74710613      -1.50101801      -2.06171610
C       -1.26789387      -0.94201801       0.13628390
C       -0.68689387      -0.54101801       1.34628390
C       -0.47489387      -1.26401801      -0.94671610
C        0.89710613      -1.13901801      -0.87371610
C        0.68110613      -0.42001801       1.42928390
C        1.47210613      -0.70201801       0.31528390
H       -2.33889387      -1.04801801       0.06428390
H       -1.30889387      -0.33401801       2.20528390
H       -0.93889387      -1.61001801      -1.85971610
H        1.14410613      -0.11101801       2.35628390
H        2.53610613      -0.75501801      -2.16171610
H        1.14310613      -1.45501801      -2.96671610
H        2.54210613      -0.60301801       0.39728390
H        2.20005613      -2.50067701      -1.98742710
C       -0.51789387       2.67498199      -0.01371610
C       -1.70989387       3.08998199       0.80028390
H       -0.19289387       3.49098199      -0.66071610
H        0.30010613       2.40398199       0.65428390
H       -0.75989387       1.80298199      -0.61871610
H       -2.09289387       2.22398199       1.34228390
H       -2.49278787       3.49945099       0.14498890
H       -1.40809587       3.86261699       1.52274740
