18
Properties=species:S:1:pos:R:3 pbc="F F F"
C        3.90053446      -1.21791545       0.31808822
O        2.69653446      -1.15691545      -0.42691178
H        2.82253446      -1.65591545      -1.24891178
H        4.26153446      -2.24691545       0.32708822
H        3.61753446      -0.97691545       1.34308822
H        4.73389446      -0.55702645       0.03747822
C       -3.26046554       1.08608455       0.75408822
C       -0.14646554       0.51908455      -0.98091178
C       -1.06546554      -0.21991545       0.86208822
C       -1.91346554       0.66508455       0.29708822
N        0.03753446      -0.29991545       0.04608822
N       -1.33546554       1.10108455      -0.86691178
H        0.88553446      -0.84091545       0.19908822
H        0.55953446       0.68108455      -1.78691178
H       -1.23946554      -0.76091545       1.78008822
H       -3.70346554       1.74208455       0.00508822
H       -3.13446554       1.67008455       1.66608822
H       -3.95243954       0.25614855       0.95994822
