20
Properties=species:S:1:pos:R:3 pbc="F F F"
C        1.94086816      -0.30492268       0.90631394
C        0.58386816      -2.20192268       0.09431394
N       -0.17913184      -1.38992268      -0.61268606
N        1.58286816      -1.72292268       0.81731394
N        0.34786816      -3.49792268       0.07631394
H       -0.01813184      -0.37692268      -0.58068606
H       -0.76813184      -1.76592268      -1.33168606
H        2.12186816      -2.40092268       1.35531394
H        0.92786816      -4.08792268       0.66031394
H       -0.42213184      -3.88992268      -0.43968606
H        2.50886816      -0.15592268       1.82631394
H        1.05086816       0.32207732       0.96931394
H        2.56846816       0.00166212       0.05653294
C       -1.01813184       3.70207732      -0.59468606
C       -1.07413184       2.21207732      -0.29168606
O       -0.24113184       1.47607732      -0.86668606
O       -1.93413184       1.76307732       0.50431394
H       -1.08613184       3.84107732      -1.67568606
H       -0.05013184       4.06707732      -0.25468606
H       -1.80065184       4.29544432      -0.09913506
