19
Properties=species:S:1:pos:R:3 pbc="F F F"
C       -0.52213736      -1.28325153       1.11717608
C        0.98786264      -1.21125153       1.15317608
C       -1.19813736      -0.40025153       2.10417608
H       -0.85913736      -1.03725153       0.11017608
H       -0.82313736      -2.31525153       1.31717608
H        1.31486264      -0.21025153       0.85917608
H       -0.85313736      -0.61525153       3.11517608
H       -0.97813736       0.64474847       1.87617608
H        1.39251264      -1.96037453       0.45670608
H        1.35257264      -1.38961653       2.17551608
H       -2.28621736      -0.56172253       2.10121608
C        0.38986264       0.80274847      -1.67082392
C        0.30786264       2.00974847      -2.62982392
H        0.02186264      -0.10425153      -2.14982392
H        1.43086264       0.63574847      -1.38982392
H       -0.19513736       1.01074847      -0.77482392
H        0.86086264       1.78074847      -3.53882392
H       -0.74107736       2.21910747      -2.88650392
H        0.77576264       2.88302547      -2.15185392
