19
Properties=species:S:1:pos:R:3 pbc="F F F"
C       -0.36089509      -1.40213923       0.33769499
C       -0.40189509      -2.81113923      -0.30030501
C       -0.03689509      -1.43513923       1.83969499
H        0.39610491      -0.81213923      -0.18230501
H       -1.32789509      -0.91413923       0.20569499
H       -1.12289509      -3.42113923       0.24369499
H        0.89710491      -1.96613923       2.00969499
H        0.59639741      -3.26975323      -0.24476501
H       -0.75629789      -2.78316023      -1.34127501
H        0.10216731      -0.39724123       2.17648699
H       -0.82247819      -1.93062823       2.42905899
C        0.26410491       2.05986077      -1.15530501
C        0.50710491       3.49386077      -0.69830501
H        0.05710491       2.02786077      -2.22530501
H        1.15310491       1.45786077      -0.96530501
H       -0.58089509       1.63086077      -0.61330501
H        1.32810491       3.90386077      -1.28630501
H       -0.38933069       4.11419677      -0.84522501
H        0.80900711       3.48806877       0.35943899
