16
Properties=species:S:1:pos:R:3 pbc="F F F"
C        1.02550244       0.65617345      -1.34207308
C        1.81650244       1.58917345      -0.43207308
H        0.62650244      -0.17482655      -0.77207308
H        0.19350244       1.20317345      -1.78507308
H        1.67050244       0.28217345      -2.13907308
H        1.13250244       1.95317345       0.32892692
H        2.66170244       1.07617345       0.05007692
H        2.17184244       2.45658345      -1.00769508
C       -1.27349756      -1.71382655       0.42492692
C       -1.57049756      -0.53582655       1.34492692
H       -1.32649756      -1.40682655      -0.61907308
H       -0.27349756      -2.08982655       0.63892692
H       -1.97849756      -2.51982655       0.60592692
H       -0.67949756       0.09117345       1.39292692
H       -1.76449756      -0.91282655       2.34292692
H       -2.41035156       0.09299345       1.01442192
