23
Properties=species:S:1:pos:R:3 pbc="F F F"
C        1.48235739       2.68513199       2.17124087
C        0.36635739       2.35513199       3.16324087
H        2.20135739       3.37413199       2.60924087
H        2.01435739       1.77013199       1.92624087
H        1.06535739       3.12213199       1.26324087
H        0.78535739       1.72813199       3.94924087
H       -0.03522261       3.26938199       3.62463087
H       -0.43009261       1.78552199       2.66204087
C       -2.21864261       0.04513199      -2.11675913
C        1.03535739      -0.11886801      -0.17075913
C       -0.05164261       0.37613199      -0.88075913
C        1.14535739      -1.48186801       0.07824087
C       -1.02964261      -0.48786801      -1.36075913
C        0.16735739      -2.34886801      -0.39075913
C       -0.91664261      -1.84986801      -1.10275913
H        1.80835739       0.55613199       0.15924087
H       -0.13164261       1.43813199      -1.06675913
H        1.99335739      -1.86786801       0.62724087
H        0.24935739      -3.41086801      -0.19675913
H       -2.62364261       0.88813199      -1.56075913
H       -2.98364261      -0.72186801      -2.14675913
H       -1.68764261      -2.50986801      -1.45775913
H       -1.98988261       0.41875199      -3.12575913
