13
Properties=species:S:1:pos:R:3 pbc="F F F"
C       -1.78445430      -1.60083250      -1.49154366
C       -0.93345430      -0.43483250      -0.95654366
O       -0.97245430      -0.17583250       0.27045634
O       -0.16645430       0.17516750      -1.71054366
H       -2.71945430      -1.64983250      -0.92954366
H       -1.23345430      -2.52083250      -1.29354366
H       -2.03043430      -1.57652250      -2.56341366
C        2.21554570       1.51016750       1.68145634
O        1.39154570       0.39116750       1.92645634
H        0.63654570       0.40116750       1.30645634
H        3.00554570       1.52516750       2.43445634
H        1.63654570       2.43216750       1.77445634
H        2.68083670       1.45227750       0.68639634
