23
Properties=species:S:1:pos:R:3 pbc="F F F"
C        2.58332128      -1.18301312       0.17259817
C        3.16432128      -0.48301312       1.39859817
H        1.67032128      -1.72101312       0.42559817
H        2.39032128      -0.44101312      -0.59340183
H        3.31032128      -1.88001312      -0.24440183
H        3.93032128       0.21498688       1.06359817
H        3.63183628      -1.22354512       2.06420817
H        2.38392528       0.07482588       1.93692817
C       -0.77167872      -1.59301312      -1.84140183
C       -0.86967872      -0.44301312      -0.86740183
C       -1.88867872      -0.41501312       0.07959817
C        0.04732128       0.60698688      -0.90440183
C       -1.98667872       0.63698688       0.99159817
C       -0.05267872       1.66698688       0.00059817
C       -1.06867872       1.67898688       0.94859817
H       -1.27567872      -2.46201312      -1.41340183
H        0.27832128      -1.85101312      -1.95240183
H       -2.61067872      -1.21901312       0.11959817
H        0.82732128       0.62198688      -1.65240183
H       -2.78167872       0.64498688       1.72659817
H        0.65232128       2.48598688      -0.04640183
H       -1.14767872       2.49998688       1.64959817
H       -1.21308972      -1.37984412      -2.82614183
