16
Properties=species:S:1:pos:R:3 pbc="F F F"
C       -0.19206295      -0.62872253       1.86257739
C       -0.72706295      -2.06572253       1.84757739
H        0.87393705      -0.63672253       1.63257739
H       -0.70306295      -0.02372253       1.11457739
H       -0.33106295      -0.18572253       2.84557739
H       -0.42906295      -2.50472253       0.89657739
H       -0.29516295      -2.64683253       2.67568739
H       -1.82609295      -2.06071253       1.89339739
C        0.96293705       1.28527747      -1.28742261
C       -0.05006295       1.41127747      -2.41842261
H        0.64893705       1.88027747      -0.43342261
H        1.06093705       0.24927747      -0.97142261
H        1.94593705       1.61627747      -1.60942261
H        0.30793705       0.82727747      -3.26842261
H       -0.16255295       2.45712747      -2.74022261
H       -1.01619295       1.00305747      -2.08683261
