24
Properties=species:S:1:pos:R:3 pbc="F F F"
C        0.50793998       1.98785739       0.42350392
C        1.46493998       1.26685739       1.34950392
C        1.20093998       3.14985739      -0.21149608
O        1.71293998       4.00985739       0.49850392
N        1.14193998       3.25585739      -1.53449608
H        0.12293998       1.31085739      -0.33749608
H       -0.34006002       2.35885739       0.99950392
H        0.89793998       0.48985739       1.85650392
H        1.81693998       1.96285739       2.11250392
H        1.57793998       4.04885739      -1.97949608
H        0.75293998       2.48985739      -2.07949608
H        2.32484028       0.79917939       0.84765792
C        0.58193998      -3.89314261      -0.05249608
C       -1.61206002      -1.02614261      -0.28549608
C       -0.58106002      -2.94914261      -0.05349608
C       -1.91806002      -3.16414261       0.17550392
N       -0.40006002      -1.59814261      -0.31249608
N       -2.54406002      -1.93314261       0.02850392
H       -1.81306002       0.02185739      -0.47449608
H       -3.54206002      -1.74214261       0.10550392
H       -2.40106002      -4.09514261       0.43050392
H        1.29193998      -3.53814261       0.69450392
H        1.07293998      -3.83914261      -1.02549608
H        0.32786098      -4.93914261       0.17407592
