24
Properties=species:S:1:pos:R:3 pbc="F F F"
C       -2.53028585       0.60440092      -2.85125106
C       -0.28028585      -1.88559908      -1.47125106
C       -1.36828585      -0.18159908      -2.33325106
C       -0.05428585       0.15640092      -2.26125106
N       -1.48728585      -1.46659908      -1.84125106
N        0.60371415      -0.92459908      -1.71725106
H       -0.04828585      -2.85559908      -1.04725106
H        1.60871415      -0.99459908      -1.54125106
H        0.38871415       1.08540092      -2.59125106
H       -3.03328585       0.01040092      -3.61525106
H       -2.14128585       1.50640092      -3.32725106
H       -3.25730485       0.89204092      -2.07749106
C       -0.57628585       1.98840092       1.12674894
C        0.35371415      -0.34059908       1.75974894
C        0.35171415       1.01640092       1.78474894
C        2.10671415       0.32340092       2.91574894
N        1.45071415      -0.75059908       2.48774894
N        1.46771415       1.41440092       2.49874894
H       -0.37228585      -0.96659908       1.25574894
H        1.73471415      -1.70959908       2.65674894
H       -1.24528585       1.44140092       0.46474894
H        0.02971415       2.64440092       0.50074894
H        3.01971415       0.31040092       3.50274894
H       -1.16084585       2.60684092       1.82375894
