23
Properties=species:S:1:pos:R:3 pbc="F F F"
C       -3.92070754       2.27750615      -1.12105884
C       -0.86470754       0.07750615      -0.37705884
C        0.01729246       1.03950615       0.11494116
C       -2.15170754       0.47450615      -0.76705884
C       -2.55270754       1.81750615      -0.66705884
C       -0.39570754       2.36650615       0.23394116
C       -1.66170754       2.74350615      -0.14105884
O        1.27429246       0.71850615       0.51994116
H       -0.55770754      -0.95249385      -0.45505884
H       -2.84470754      -0.25749385      -1.15505884
H        0.28329246       3.10750615       0.63094116
H        1.76429246       1.48650615       0.82294116
H       -4.36370754       2.88950615      -0.33705884
H       -4.56070754       1.40650615      -1.26105884
H       -1.96170754       3.77850615      -0.04105884
H       -3.90212754       2.84777615      -2.06150784
C        1.68529246      -3.93549385       0.34994116
C        2.30729246      -2.55649385       0.47394116
O        1.91629246      -1.63449385      -0.27805884
O        3.19929246      -2.40749385       1.35794116
H        1.05029246      -4.08449385       1.22794116
H        2.44829246      -4.70549385       0.41294116
H        1.03703246      -4.05763385      -0.53030784
