18
Properties=species:S:1:pos:R:3 pbc="F F F"
C       -2.20907916      -1.58761024       0.75402204
C       -2.78707916      -1.77061024      -0.67697796
H       -3.02107916      -1.50761024       1.47802204
H       -1.58507916      -2.44161024       1.01502204
H       -1.60707916      -0.67961024       0.79802204
H       -1.96807916      -1.84661024      -1.39497796
H       -3.40895916      -0.89927024      -0.93001796
H       -3.38495916      -2.69308024      -0.71678796
C        0.67292084       0.17138976      -0.90697796
C        1.96992084       0.28438976      -1.71797796
C        0.79192084       0.82638976       0.47502204
O        1.84292084       0.64938976       1.13502204
O       -0.17907916       1.49638976       0.91002204
H       -0.10407916       0.67538976      -1.47797796
H        0.40292084      -0.87861024      -0.78397796
H        2.81292084      -0.03161024      -1.10497796
H        2.11592084       1.32338976      -2.01897796
H        1.94410084      -0.34108024      -2.62247796
