28
Properties=species:S:1:pos:R:3 pbc="F F F"
C       -2.43454807      -0.06263903       0.29388981
C       -2.34654807       1.05336097       1.33388981
C       -2.55754807      -1.43063903       0.94188981
O       -3.50054807      -1.69463903       1.68188981
N       -1.61154807      -2.31263903       0.66688981
H       -3.31754807       0.04936097      -0.32911019
H       -1.56154807      -0.01863903      -0.35811019
H       -1.36454807       1.01836097       1.80888981
H       -3.09354807       0.86536097       2.10588981
H       -1.68154807      -3.21963903       1.10088981
H       -0.79754807      -2.06563903       0.11788981
H       -2.52095107       2.06461097       0.93771481
C        2.42045193       3.43936097      -0.71911019
C        1.19345193       0.06636097       0.50388981
C        1.32145193      -0.70363903      -0.64011019
C        1.54445193       1.40036097       0.47788981
C        2.04245193       1.97936097      -0.69011019
C        1.80645193      -0.14463903      -1.81511019
C        2.16445193       1.19236097      -1.83511019
O        0.96145193      -2.01363903      -0.60111019
H        0.82845193      -0.38563903       1.41188981
H        1.44545193       1.99636097       1.37488981
H        1.92745193      -0.74563903      -2.70511019
H        1.25045193      -2.49363903      -1.38511019
H        3.29945193       3.56736097      -1.35311019
H        2.69245193       3.75936097       0.28588981
H        2.56345193       1.62536097      -2.74211019
H        1.60489893       4.07383997      -1.09634819
