35
Properties=species:S:1:pos:R:3 pbc="F F F"
C        0.32842924      -1.01668690      -2.84983291
C        0.77642924      -0.75768690      -1.46083291
C        1.28642924       0.40131310      -0.96883291
C        0.80742924      -1.70768690      -0.38283291
C        1.29442924      -1.02568690       0.76316709
C        0.38642924      -3.03768690      -0.24583291
C        1.38142924      -1.63668690       2.00316709
C        0.48942924      -3.65468690       0.99816709
C        0.98742924      -2.95968690       2.10916709
N        1.58842924       0.25231310       0.36716709
H        0.20642924      -0.06968690      -3.37883291
H       -0.65057076      -1.48568690      -2.78783291
H        1.42142924       1.31331310      -1.54283291
H        1.97142924       0.98631310       0.95316709
H       -0.01957076      -3.57368690      -1.09283291
H        1.78242924      -1.11068690       2.84116709
H        0.17942924      -4.67768690       1.12016709
H        1.06142924      -3.46668690       3.06116709
H        1.00386824      -1.67628690      -3.41437891
C       -1.74257076       1.04631310       0.81316709
C       -1.83157076       0.90231310       2.30516709
C       -1.19057076       2.82431310      -0.76683291
N       -1.10357076       2.30231310       0.44116709
N       -1.88657076       2.20331310      -1.70083291
N       -0.56657076       3.95131310      -1.04283291
H       -1.16757076       0.21631310       0.40216709
H       -2.75957076       1.00231310       0.41616709
H       -2.59057076       1.59031310       2.68116709
H       -0.87057076       1.12931310       2.77016709
H       -0.57157076       2.80131310       1.13916709
H       -2.33957076       1.33231310      -1.48883291
H       -1.96257076       2.59631310      -2.62483291
H       -0.03557076       4.42731310      -0.33083291
H       -0.62957076       4.35431310      -1.96383291
H       -2.10533176      -0.14016690       2.52490609
