27
Properties=species:S:1:pos:R:3 pbc="F F F"
C       -1.47320306       0.53878528       2.66071933
C       -1.20820306       1.94078528       3.32671933
H       -0.61220306      -0.11521472       2.77971933
H       -2.33020306       0.07278528       3.14671933
H       -1.68320306       0.65278528       1.59871933
H       -0.80220306       1.80078528       4.32971933
H       -2.16520306       2.44078528       3.40971933
H       -0.52562306       2.54671528       2.71275933
C        3.16879694       0.33978528      -0.02128067
C       -0.48420306       0.14278528      -1.00928067
C        0.69679694      -0.47221472      -0.50528067
C        1.71679694       0.55278528      -0.44928067
C        1.12279694       1.70278528      -0.90328067
C       -1.67420306      -0.54321472      -1.19728067
C       -1.68820306      -1.87721472      -0.89428067
C        0.67679694      -1.86921472      -0.23528067
C       -0.54220306      -2.54621472      -0.40228067
N       -0.19720306       1.45978528      -1.25128067
H       -0.83720306       2.16278528      -1.60028067
H       -2.54120306      -0.04721472      -1.60228067
H        1.62179694       2.66278528      -0.99128067
H       -2.59720306      -2.44321472      -1.04928067
H        1.55879694      -2.38021472       0.12371933
H        3.20379694      -0.39121472       0.78571933
H        3.53379694       1.28078528       0.37471933
H       -0.59820306      -3.60421472      -0.18928067
H        3.79965694      -0.01578472      -0.84928167
