20
Properties=species:S:1:pos:R:3 pbc="F F F"
C        0.98239005       0.19673655      -0.93468135
C        1.57139005       0.03573655      -2.33968135
C       -0.49860995       0.59573655      -0.95368135
O       -1.36060995      -0.09526345      -1.52368135
N       -0.79260995       1.74273655      -0.33168135
H        1.05739005      -0.75626345      -0.41568135
H        1.55739005       0.93873655      -0.37868135
H        1.12839005      -0.85226345      -2.79868135
H       -1.75960995       2.05673655      -0.35568135
H       -0.07160995       2.29873655       0.10231865
H        2.66042705      -0.10529545      -2.27557635
H        1.30171005       0.91547555      -2.94245235
C        0.12839005      -1.10626345       2.22231865
C        0.02539005      -1.37926345       3.69631865
H        1.17439005      -1.12626345       1.91731865
H       -0.41460995      -1.86926345       1.66431865
H       -0.30460995      -0.13026345       1.99731865
H       -1.02560995      -1.32126345       3.96031865
H        0.60504205      -0.61389045       4.23316865
H        0.37978705      -2.39161845       3.94032865
