19
Properties=species:S:1:pos:R:3 pbc="F F F"
C       -0.48554427       0.73120616      -2.38635376
C       -0.18854427       2.12420616      -1.86935376
H       -0.39754427       0.71020616      -3.47235376
H        0.22245573       0.01920616      -1.96935376
H       -1.49154427       0.43420616      -2.10735376
H       -0.33154427       2.12620616      -0.78735376
H       -0.88204427       2.85328616      -2.31376776
H        0.86098573       2.37600616      -2.08169776
C        0.12545573      -0.54979384       1.06164624
C       -0.45954427      -1.95879384       0.97164624
C        1.02245573      -0.38079384       2.27964624
H        0.70345573      -0.33979384       0.16264624
H       -0.69254427       0.16820616       1.13064624
H       -0.93854427      -2.19479384       1.91464624
H        0.38745573      -0.52979384       3.15764624
H        1.78545573      -1.15079384       2.34264624
H        0.35127573      -2.68044384       0.79331224
H       -1.22068427      -2.00551384       0.17887924
H        1.47322573       0.61857616       2.36950924
