26
Properties=species:S:1:pos:R:3 pbc="F F F"
C        2.88386150       0.21785258       0.00172787
C        3.39386150      -1.12114742      -0.50227213
C        3.34786150       0.46285258       1.42572787
H        3.23986150       1.02085258      -0.64427213
H        1.80186150       0.15785258      -0.04827213
H        2.97786150      -1.90314742       0.13472787
H        2.94086150      -0.34114742       2.02072787
H        4.42486150       0.42985258       1.48272787
H        4.49090150      -1.15602242      -0.42949013
H        3.04837150      -1.32526542      -1.52646713
H        3.00496150       1.41597058       1.85466177
C       -1.05913850      -1.85114742       1.28472787
C       -0.69013850      -0.50014742      -0.80827213
C       -1.36013850      -0.66614742       0.39872787
C       -0.95713850       0.59085258      -1.62727213
C       -2.29813850       0.28785258       0.77972787
C       -1.89913850       1.53185258      -1.23927213
C       -2.57213850       1.37885258      -0.03527213
H        0.01186150      -1.24714742      -1.12127213
H       -0.44013850       0.69885258      -2.57227213
H       -1.22513850      -1.55914742       2.31872787
H        0.00186150      -2.07714742       1.19572787
H       -2.79913850       0.19685258       1.72172787
H       -2.10813850       2.38285258      -1.86727213
H       -3.30813850       2.10985258       0.26772787
H       -1.64001850      -2.75426742       1.04608687
