21
Properties=species:S:1:pos:R:3 pbc="F F F"
C       -1.33890208      -2.13884888      -0.71686019
C        0.06509792      -0.82284888       0.85013981
N       -1.11890208      -1.23584888       0.42113981
N        1.17409792      -1.23184888       0.26313981
N        0.13509792       0.02615112       1.85513981
H       -1.92490208      -0.84884888       0.90913981
H        1.13009792      -1.91284888      -0.47686019
H        2.07209792      -0.93184888       0.60713981
H       -0.75290208       0.33315112       2.25313981
H        1.01609792       0.31715112       2.24313981
H       -2.33090208      -2.58684888      -0.61686019
H       -0.60990208      -2.95284888      -0.71686019
H       -1.30013208      -1.59173888      -1.67036019
C        0.75609792       2.26715112      -0.71786019
C        0.26809792       3.05515112      -1.92786019
H        1.56909792       2.79115112      -0.21486019
H       -0.06490208       2.16515112      -0.00486019
H        1.08709792       1.27415112      -1.02686019
H        0.09609792       4.07815112      -1.61286019
H        1.02556792       3.02212412      -2.72482019
H       -0.68255208       2.64308312      -2.29728019
