25
Properties=species:S:1:pos:R:3 pbc="F F F"
C        1.81928773       0.12378133      -1.32770426
C        1.54528773       1.46978133      -2.01370426
C        2.64828773       0.22178133      -0.05970426
H        0.94528773      -0.49021867      -1.18870426
H        2.43428773      -0.45221867      -2.02070426
H        2.48228773       1.81378133      -2.45670426
H        2.04028773       0.59178133       0.76529574
H        3.03228773      -0.76421867       0.20329574
H        3.47628773       0.90178133      -0.23370426
H        0.80015773       1.34416133      -2.81307926
H        1.21707773       2.23370133      -1.29349626
C       -1.31171227      -0.36921867       0.56829574
C       -2.52871227      -1.12721867       0.02429574
C       -1.71971227       0.90178133       1.27029574
C       -0.52271227      -1.24421867       1.53229574
H       -0.71171227      -0.07221867      -0.26570426
H       -3.25671227      -1.25621867       0.82429574
H       -2.18471227      -2.12721867      -0.22770426
H       -2.53471227       0.71378133       1.97029574
H       -0.87071227       1.30778133       1.82129574
H       -2.02671227       1.65178133       0.55029574
H       -0.15471227      -2.12921867       1.01829574
H        0.33228773      -0.69321867       1.92329574
H       -1.14971227      -1.55821867       2.36329574
H       -3.03662227      -0.73519867      -0.86920326
