19
Properties=species:S:1:pos:R:3 pbc="F F F"
C       -2.11031104       2.44035978      -2.80496212
C       -1.44531104       0.52935978       0.19303788
C       -0.50631104       0.68235978      -1.79096212
C       -1.57031104       1.53435978      -1.75296212
N       -0.45731104       0.06335978      -0.57296212
N       -2.14531104       1.41635978      -0.50196212
H        0.22968896      -0.63964022      -0.30396212
H       -1.70031104       0.27835978       1.21703788
H        0.20768896       0.46235978      -2.57196212
H       -1.28531104       2.71235978      -3.45596212
H       -2.47131104       3.33735978      -2.29296212
H       -2.90990004       1.98928978      -3.41093212
C        2.13668896      -0.21364022       2.21103788
C        1.88468896      -1.61164022       1.64803788
O        1.41468896      -1.78964022       0.50403788
O        2.15668896      -2.56664022       2.39703788
H        2.92568896      -0.26464022       2.96503788
H        1.22268896       0.15735978       2.67703788
H        2.45624296       0.49776978       1.43528788
