17
Properties=species:S:1:pos:R:3 pbc="F F F"
C       -0.14217779       1.59397626      -1.64862874
C        0.60082221       2.93097626      -1.55162874
H        0.54382221       0.76797626      -1.45362874
H       -0.96917779       1.56897626      -0.93762874
H       -0.53717779       1.48097626      -2.65162874
H       -0.10217779       3.73097626      -1.67262874
H        1.36054221       2.99641706      -2.34443874
H        1.08941221       3.00191276      -0.56864874
C        0.45782221      -0.01702374       1.63137126
C       -1.49817779      -1.50802374       0.35337126
S        0.30382221      -1.43202374       0.55437126
H       -0.18317779      -0.14802374       2.49637126
H        1.49382221       0.09497626       1.95037126
H        0.13882221       0.87597626       1.10237126
H       -1.87417779      -0.54202374       0.01337126
H       -1.95317779      -1.75002374       1.31237126
H       -1.73910779      -2.27769774      -0.39465874
