20
Properties=species:S:1:pos:R:3 pbc="F F F"
C        3.60772746       0.12144517       1.39027735
C        1.56272746      -0.50755483       0.22527735
N        0.89472746      -1.37355483      -0.51672265
N        2.81572746      -0.78055483       0.57927735
N        0.98272746       0.62244517       0.61027735
H        1.32872746      -2.23355483      -0.81472265
H       -0.07027254      -1.17255483      -0.78272265
H        3.23772746      -1.64655483       0.27327735
H        1.49072746       1.28944517       1.17227735
H        0.02472746       0.82544517       0.33427735
H        3.39272746       1.14344517       1.07427735
H        4.65572746      -0.08955483       1.21327735
H        3.38962746       0.02159517       2.46380735
C       -3.90727254       0.62344517      -0.64372265
C       -2.38827254       0.46844517      -0.56272265
O       -1.89427254      -0.68255483      -0.56872265
O       -1.66027254       1.48544517      -0.51372265
H       -4.19827254       0.79544517      -1.68172265
H       -4.22527254       1.46944517      -0.03572265
H       -4.41782254      -0.27219483      -0.26008265
