23
Properties=species:S:1:pos:R:3 pbc="F F F"
C       -0.08235991      -3.68088939      -0.79304317
C       -1.53835991      -3.85688939      -1.06404317
H        0.36964009      -3.04588939      -1.55604317
H        0.05564009      -3.23188939       0.19095683
H        0.42864009      -4.64388939      -0.77904317
H       -1.93735991      -4.57188939      -0.34404317
H       -1.70694691      -4.23997639      -2.08130517
H       -2.05774391      -2.90009139      -0.90663217
C       -1.19635991       1.89211061       2.15895683
C        0.82164009      -0.22988939      -0.27504317
C        1.37964009       0.73611061      -1.08804317
C       -0.02935991       0.13111061       0.76295683
C       -0.32335991       1.47711061       1.00095683
C        1.11164009       2.07211061      -0.86604317
C        0.25464009       2.44611061       0.17495683
H        1.08364009      -1.26188939      -0.42904317
H        2.04264009       0.45311061      -1.89304317
H       -0.44635991      -0.63388939       1.40295683
H        1.55764009       2.82911061      -1.49504317
H       -0.69535991       2.70311061       2.68795683
H       -1.29235991       1.05911061       2.85495683
H        0.05664009       3.49111061       0.35095683
H       -2.19793891       2.23313451       1.85805383
