16
Properties=species:S:1:pos:R:3 pbc="F F F"
C        2.06091509       0.83484283      -0.39550778
C        1.58291509       2.24584283      -0.01150778
H        2.99191509       0.89384283      -0.96450778
H        2.22691509       0.23684283       0.50149222
H        1.30391509       0.34384283      -1.00850778
H        0.68891509       2.16084283       0.61049222
H        1.35316509       2.81605283      -0.92368778
H        2.37052509       2.76684283       0.55261222
C       -1.22808491      -1.06115717       0.16549222
C       -2.41508491      -2.01715717       0.24749222
H       -0.40608491      -1.42715717       0.78349222
H       -0.88608491      -0.98615717      -0.86650778
H       -1.52208491      -0.06515717       0.49649222
H       -3.26408491      -1.56815717      -0.26150778
H       -2.70515491      -2.24848717       1.28303222
H       -2.15972491      -2.95140717      -0.27401778
