23
Properties=species:S:1:pos:R:3 pbc="F F F"
C        2.33502498      -1.66785987      -2.70360963
C        2.14302498      -1.80285987      -4.18560963
H        1.44202498      -1.97185987      -2.16960963
H        3.15402498      -2.32285987      -2.40760963
H        2.58002498      -0.63585987      -2.44960963
H        1.90902498      -2.84485987      -4.39660963
H        1.32008498      -1.16264087      -4.53617263
H        3.08865498      -1.56609087      -4.69523963
C       -2.38597502      -0.17085987       2.77839037
C       -0.24397502      -0.01685987      -0.36460963
C        0.52302498       1.12114013      -0.12760963
C       -1.18997502      -0.42285987       0.57139037
C       -1.37797502       0.29614013       1.75339037
C        0.34802498       1.84514013       1.05339037
C       -0.59297502       1.42414013       1.99039037
H       -0.11197502      -0.57785987      -1.27760963
H        1.26102498       1.43714013      -0.85360963
H       -1.78497502      -1.30085987       0.38139037
H        0.96302498       2.70814013       1.25839037
H       -1.88297502      -0.83285987       3.47539037
H       -3.15697502      -0.76285987       2.28239037
H       -0.66197502       1.98514013       2.90639037
H       -2.85496502       0.63609513       3.36051037
