16
Properties=species:S:1:pos:R:3 pbc="F F F"
C        1.16031798      -1.37431051      -0.89440604
C        0.93931798      -0.28731051      -1.92840604
H        1.53931798      -2.28231051      -1.36640604
H        1.86631798      -1.02331051      -0.14640604
H        0.22931798      -1.59731051      -0.38340604
H        0.63031798       0.63368949      -1.44340604
H        0.15082798      -0.58488191      -2.63532604
H        1.87116798      -0.10488101      -2.48372604
C       -1.02468202       0.14868949       1.77359396
C       -1.07568202       1.51168949       1.05559396
H       -1.20568202       0.25368949       2.83259396
H       -1.76768202      -0.52831051       1.34959396
H       -0.03768202      -0.28831051       1.62959396
H       -0.81768202       1.36068949       0.01059396
H       -0.36341202       2.23075249       1.48642396
H       -2.08645202       1.94529449       1.07390396
