16
Properties=species:S:1:pos:R:3 pbc="F F F"
C       -1.57131443      -0.42801045      -0.35509754
C       -2.74531443      -1.16701045      -0.96709754
H       -1.67631443       0.64698955      -0.49809754
H       -1.53931443      -0.62801045       0.71690246
H       -0.64531443      -0.77701045      -0.80909754
H       -3.66631443      -0.71301045      -0.60909754
H       -2.70631443      -2.19401045      -0.60109754
H       -2.74817443      -1.17774545      -2.06703754
C        1.43068557       0.63498955       0.53890246
C        2.89168557       0.95798955       0.77590246
H        1.22868557      -0.41501045       0.75590246
H        0.82268557       1.27698955       1.16590246
H        1.12068557       0.86798955      -0.47509754
H        3.02568557       2.03898955       0.73490246
H        3.51320557       0.48554955       0.00097946
H        3.20237557       0.61261955       1.77299446
