23
Properties=species:S:1:pos:R:3 pbc="F F F"
C       -1.65491116       1.65186481       2.16135683
C        0.53108884      -0.30713519      -0.26164317
C       -0.58191116       0.33086481       0.32835683
C        1.77508884      -0.26213519       0.36235683
C       -0.45191116       0.99586481       1.52635683
C        1.90908884       0.39486481       1.57035683
C        0.79208884       1.02586481       2.15435683
H        0.41608884      -0.86713519      -1.17164317
H       -1.54891116       0.27886481      -0.14964317
H        2.62508884      -0.76413519      -0.08164317
H        2.85508884       0.37486481       2.08035683
H       -2.17991116       2.22986481       1.40035683
H       -1.31191116       2.35286481       2.92235683
H        0.90508884       1.53086481       3.10235683
H       -2.35436116       0.93302281       2.61305683
C       -0.21691116      -1.58013519      -3.76864317
C       -1.59891116      -1.89113519      -3.21364317
H       -0.28891116      -1.30013519      -4.81964317
H        0.23908884      -0.74213519      -3.24864317
H        0.43908884      -2.44413519      -3.66464317
H       -1.48591116      -2.40613519      -2.25964317
H       -2.17641116      -2.51245149      -3.91397317
H       -2.12440116      -0.93922919      -3.04709317
