17
Properties=species:S:1:pos:R:3 pbc="F F F"
C       -0.45585792       0.97928685       0.47334597
C        0.78014208      -0.96571315       1.82934597
S       -0.82085792      -0.14271315       1.80934597
H       -1.07385792       0.71728685      -0.38065403
H       -0.67185792       1.96628685       0.86434597
H        0.59814208       0.96728685       0.20134597
H        0.76714208      -1.71871315       2.60934597
H        1.53314208      -0.22071315       2.09134597
H        1.08080208      -1.48144315       0.90542597
C        0.05014208       0.55228685      -2.90865403
C        1.29414208      -0.27271315      -3.21765403
H       -0.44085792       0.83128685      -3.84265403
H       -0.64685792      -0.03571315      -2.31265403
H        0.33214208       1.45828685      -2.36865403
H        1.80214208      -0.43971315      -2.27465403
H        1.97639208       0.26015685      -3.89631403
H        0.96925208      -1.25827315      -3.58251403
