20
Properties=species:S:1:pos:R:3 pbc="F F F"
C        1.24294517      -0.07101993       0.17633451
C        2.65194517      -0.55001993       0.51333451
C        0.24594517      -0.61201993       1.16933451
O        0.23894517      -0.19901993       2.33833451
N       -0.55505483      -1.59701993       0.72933451
H        1.21194517       1.01898007       0.20733451
H        0.97194517      -0.38901993      -0.83266549
H        2.94494517      -0.15101993       1.48833451
H       -1.22805483      -1.99201993       1.36833451
H       -0.50205483      -1.92101993      -0.22566549
H        3.36753517      -0.24355693      -0.26384949
H        2.66052517      -1.64990293       0.52691351
C       -1.44205483       1.16398007      -1.84466549
C       -2.23705483       1.88098007      -2.95966549
H       -1.73605483       1.52998007      -0.86266549
H       -1.63905483       0.09198007      -1.89166549
H       -0.37505483       1.33298007      -1.99266549
H       -1.94505483       1.47198007      -3.92866549
H       -1.99939483       2.95461607      -2.93099449
H       -3.31354083       1.70678007      -2.81532849
