27
Properties=species:S:1:pos:R:3 pbc="F F F"
C        2.79341178      -1.65595092      -0.60544078
C        3.14541178      -1.87895092      -2.06944078
C        1.49441178      -2.29595092      -0.18844078
H        3.59141178      -2.09695092      -0.00144078
H        2.76541178      -0.58895092      -0.38344078
H        3.07641178      -2.94895092      -2.28944078
H        0.65141178      -1.80295092      -0.66944078
H        1.51741178      -3.33495092      -0.51044078
H        4.17422178      -1.53652092      -2.25464078
H        2.43734178      -1.36837092      -2.73873078
H        1.36381178      -2.28447092       0.90371922
C       -3.16158822      -0.25195092      -1.30344078
C        0.23541178       0.98404908      -0.13944078
C       -0.78558822       0.49604908      -0.94144078
C       -0.00358822       1.27704908       1.19455922
C       -2.06858822       0.30304908      -0.42844078
C       -1.27458822       1.09304908       1.72955922
C       -2.30358822       0.60404908       0.91755922
O        1.00741178       1.75504908       1.97355922
H        1.21541178       1.15404908      -0.56544078
H       -0.58658822       0.26704908      -1.98044078
H        1.83641178       1.81004908       1.49455922
H       -1.45658822       1.32504908       2.76955922
H       -2.98458822       0.05704908      -2.33544078
H       -4.11258822       0.17504908      -0.98844078
H       -3.29058822       0.46204908       1.33855922
H       -3.20404822      -1.35007092      -1.25523078
