28
Properties=species:S:1:pos:R:3 pbc="F F F"
C       -0.23626037       1.02936381       2.18246837
C        0.87373963       0.66836381      -0.15753163
C        0.83273963       1.20136381       1.16946837
C        2.09673963       1.08936381      -0.74453163
C        1.98873963       1.90436381       1.33846837
C       -0.00626037      -0.13363619      -0.86553163
C        0.34773963      -0.48663619      -2.15953163
C        1.54673963      -0.05363619      -2.73153163
C        2.44173963       0.73836381      -2.03853163
N        2.74773963       1.84136381       0.19546837
H       -0.92426037      -0.44563619      -0.41053163
H       -0.31426037      -1.10963619      -2.74853163
H        1.78073963      -0.34763619      -3.74753163
H        0.23573963       1.04436381       3.15846837
H       -0.67526037       0.04136381       2.05446837
H        2.27573963       2.42236381       2.24846837
H        3.66073963       2.27036381       0.09046837
H        3.37173963       1.06636381      -2.48253163
H       -1.04330037       1.77681381       2.18102837
C       -2.83526037      -2.40963619      -0.53853163
C       -2.82226037      -1.69263619       0.78946837
O       -3.36026037      -0.59163619       0.92246837
N       -2.23526037      -2.30863619       1.81246837
H       -3.52326037      -3.24363619      -0.42053163
H       -1.84426037      -2.82263619      -0.72953163
H       -2.28126037      -1.90263619       2.74346837
H       -1.76126037      -3.19363619       1.66246837
H       -3.12586037      -1.77617619      -1.38958163
