16
Properties=species:S:1:pos:R:3 pbc="F F F"
C       -1.68893092      -0.52372499      -0.04789011
C       -3.02993092      -1.28172499      -0.14589011
H       -0.90793092      -1.05272499      -0.59789011
H       -1.79693092       0.47327501      -0.46989011
H       -1.38093092      -0.40872499       0.99210989
H       -3.72093092      -0.82072499       0.56210989
H       -2.85947092      -2.32447499       0.16008689
H       -3.49107092      -1.15109499      -1.13598411
C        2.03106908       0.32827501      -0.30389011
C        2.68606908       1.46627501       0.49610989
H        1.12106908       0.00227501       0.20110989
H        1.77906908       0.67527501      -1.30689011
H        2.71206908      -0.51872499      -0.39989011
H        3.62506908       1.71427501       0.00210989
H        2.89266908       1.17932501       1.53773189
H        2.04785908       2.36192501       0.47387989
