16
Properties=species:S:1:pos:R:3 pbc="F F F"
C       -0.06460167       1.14079308      -1.01556401
C       -1.47260167       0.69779308      -1.40256401
C        0.11139833       1.24579308       0.49343599
O        0.08139833       0.20079308       1.17243599
O        0.29039833       2.38079308       0.99043599
H        0.66039833       0.43379308      -1.41556401
H        0.16039833       2.10079308      -1.47356401
H       -1.59660167      -0.32620692      -1.07056401
H       -1.61263167       0.77348308      -2.49098401
H       -2.22080167       1.33362308      -0.90666401
C        0.39139833      -3.22020692       0.20143599
O        0.60839833      -1.95320692      -0.39056401
H        0.35139833      -1.99720692      -1.31856401
H        0.75139833      -3.20420692       1.23143599
H        0.94939833      -3.97920692      -0.34756401
H       -0.67498167      -3.49003692       0.19567599
