24
Properties=species:S:1:pos:R:3 pbc="F F F"
C        2.89150459      -0.14348726      -2.00110604
C        3.59050459       0.80051274      -3.00610604
H        2.49450459      -1.02348726      -2.50610604
H        3.61950459      -0.48948726      -1.27210604
H        2.08650459       0.38251274      -1.48810604
H        4.41350459       0.23951274      -3.44110604
H        2.90987939       1.10722274      -3.81398604
H        4.00523759       1.68218274      -2.49555604
C       -0.81149541       2.55351274      -0.58310604
C       -0.67649541       0.01751274      -0.69510604
C       -0.87149541       1.18251274       0.05789396
C       -0.72149541      -1.23148726      -0.07810604
C       -1.12649541       1.06251274       1.42789396
C       -0.93649541      -1.32448726       1.29089396
C       -1.13449541      -0.17748726       2.04589396
O       -0.95249541      -2.55048726       1.88689396
H       -0.47349541       0.06351274      -1.75410604
H       -0.60449541      -2.12648726      -0.65610604
H        0.20850459       2.91851274      -0.46310604
H       -1.45149541       3.22951274      -0.02710604
H       -1.30349541       1.94851274       2.02189396
H       -1.30849541      -0.25148726       3.11089396
H       -0.83749541      -2.47248726       2.84789396
H       -1.06596941       2.62899274      -1.65060604
