22
Properties=species:S:1:pos:R:3 pbc="F F F"
C       -0.15175295       1.38884647       3.90668565
O        0.25624705       0.81284647       2.70068565
H       -0.12775295      -0.07215353       2.63468565
H        0.33524705       0.86784647       4.73268565
H       -1.22875295       1.29184647       4.02368565
H        0.14966705       2.44671347       3.91465565
C        1.75724705       1.94384647      -1.28531435
C       -0.91175295      -0.33515353       0.10968565
C       -0.85575295      -1.37615353      -0.80631435
C       -0.08575295       0.77184647      -0.09631435
C        0.81724705       0.81384647      -1.16031435
C        0.04524705      -1.32015353      -1.87431435
C        0.88224705      -0.22615353      -2.05731435
O       -1.60375295      -2.50115353      -0.63031435
H       -1.61075295      -0.36915353       0.93168565
H       -0.15875295       1.63184647       0.55168565
H        0.09824705      -2.14715353      -2.56931435
H       -1.44375295      -3.14915353      -1.32631435
H        1.44424705       2.77084647      -0.64531435
H        1.72424705       2.29284647      -2.31831435
H        1.58424705      -0.20615353      -2.88131435
H        2.78402405       1.64945547      -1.02251435
