15
Properties=species:S:1:pos:R:3 pbc="F F F"
C        2.65046286      -0.78571493      -1.72097306
N        1.30246286      -0.95571493      -1.12097306
H        0.57546286      -0.96871493      -1.82597306
H        1.24046286      -1.82471493      -0.60397306
H        1.06246286      -0.20371493      -0.46797306
H        2.88246286      -1.66471493      -2.33097306
H        3.41346286      -0.71971493      -0.93797306
H        2.72121286       0.10121707      -2.36777306
C       -2.05053714       0.54328507       1.84802694
C       -0.99253714       0.47128507       0.71902694
O        0.21246286       0.43028507       0.94402694
O       -1.36553714       0.45928507      -0.45797306
H       -2.71453714      -0.32071493       1.77502694
H       -2.64953714       1.43628507       1.66902694
H       -1.65040714       0.59900007       2.87115694
