23
Properties=species:S:1:pos:R:3 pbc="F F F"
C        3.31975765      -0.62235634       0.44322900
C        3.60475765       0.82164366       0.91122900
H        3.21475765      -1.29135634       1.29722900
H        2.38475765      -0.65135634      -0.11477100
H        4.12675765      -0.98135634      -0.19577100
H        2.83275765       1.10364366       1.61522900
H        4.58679765       0.85304566       1.40581600
H        3.57057765       1.51445166       0.05750210
C       -0.18124235       1.35564366      -2.01277100
C       -0.27524235       0.60264366       0.37422900
C       -0.77324235       0.49864366      -0.92477100
C       -0.80724235      -0.17835634       1.42622900
C       -1.83724235      -1.08035634       1.15822900
C       -1.80724235      -0.40735634      -1.19077100
C       -2.33724235      -1.20035634      -0.15777100
H        0.51875765       1.30364366       0.59022900
H       -0.41124235      -0.09035634       2.42822900
H        0.25175765       2.24964366      -1.56077100
H       -0.97924235       1.68264366      -2.68077100
H       -2.26024235      -1.67535634       1.95722900
H       -2.22224235      -0.48435634      -2.18577100
H       -3.17124235      -1.85635634      -0.34977100
H        0.59519765       0.82818166      -2.58628700
