31
Properties=species:S:1:pos:R:3 pbc="F F F"
C       -4.64515368       3.22518245      -1.01024182
C       -1.41815368       1.00918245       0.77775818
C       -1.42415368       2.42218245       0.84575818
C       -2.44215368       0.36918245       0.06175818
C       -2.49615368       3.14518245       0.30775818
C       -3.46315368       1.10518245      -0.50424182
C       -3.48915368       2.48718245      -0.40424182
H       -0.61415368       0.43718245       1.22075818
H       -0.62015368       2.93118245       1.35375818
H       -2.43715368      -0.70781755      -0.03824182
H       -2.52115368       4.22218245       0.39675818
H       -4.24915368       0.58918245      -1.03524182
H       -4.85715368       4.09718245      -0.39224182
H       -5.52415368       2.58518245      -0.96524182
H       -4.47254668       3.56457245      -2.04224182
C        4.77084632      -1.44881755       1.70775818
C        1.76384632      -0.53481755      -0.45424182
C        1.24884632      -1.78281755      -0.75924182
C        2.86984632      -0.40281755       0.38875818
C        3.58184632      -1.55781755       0.79875818
C        1.94784632      -2.91281755      -0.34224182
C        3.10884632      -2.79381755       0.41675818
O        0.10084632      -1.99381755      -1.54624182
H        1.23684632       0.33918245      -0.80224182
H        3.21384632       0.58118245       0.68175818
H        1.58684632      -3.89781755      -0.60524182
H       -0.09415368      -2.92881755      -1.66124182
H        4.46084632      -1.77681755       2.69875818
H        5.06884632      -0.40281755       1.78675818
H        3.61084632      -3.69381755       0.73375818
H        5.63761632      -2.05141755       1.39860818
