16
Properties=species:S:1:pos:R:3 pbc="F F F"
C        0.86461692      -0.92610859      -1.08442036
C        1.54961692      -1.40710859      -2.35742036
H        0.48261692      -1.77710859      -0.51842036
H        1.57061692      -0.36010859      -0.47442036
H        0.02961692      -0.27810859      -1.35442036
H        1.87261692      -0.53210859      -2.92442036
H        0.84418692      -1.99093859      -2.96693036
H        2.44437692      -1.99591859      -2.10703036
C       -0.83938308       0.89489141       1.10957964
C       -1.57538308       1.42889141       2.33757964
H       -0.79538308      -0.19410859       1.13657964
H       -1.36538308       1.20589141       0.20557964
H        0.17461692       1.29789141       1.08057964
H       -1.63138308       2.51689141       2.25457964
H       -1.01491308       1.17736141       3.25004964
H       -2.60524308       1.04278141       2.35489964
