17
Properties=species:S:1:pos:R:3 pbc="F F F"
C       -0.21381854       1.36054395       1.71636321
C       -1.00881854       0.50454395       0.77136321
O       -1.61881854       1.01954395      -0.14063679
N       -1.03581854      -0.81145605       0.97336321
H        0.74418146       1.58654395       1.24936321
H       -0.00581854       0.79654395       2.62636321
H       -1.62481854      -1.36845605       0.37436321
H       -0.54881854      -1.22545605       1.75336321
H       -0.73481854       2.28882795       1.99356921
C        1.26318146      -0.62245605      -1.84863679
C        2.55118146      -1.33345605      -1.43663679
H        1.00018146      -0.91845605      -2.86263679
H        0.45018146      -0.91545605      -1.19063679
H        1.38118146       0.45854395      -1.77663679
H        2.89318146      -0.89945605      -0.49763679
H        3.34443146      -1.23492005      -2.19231379
H        2.30626146      -2.39239605      -1.26735079
