16
Properties=species:S:1:pos:R:3 pbc="F F F"
C       -0.71956250      -0.96444468       1.90821183
C       -0.26556250      -2.10944468       1.01121183
H        0.12243750      -0.61244468       2.49721183
H       -1.07456250      -0.13244468       1.31021183
H       -1.52756250      -1.28844468       2.56321183
H        0.66443750      -1.82444468       0.52221183
H       -0.11362250      -3.01314768       1.61968183
H       -1.01109250      -2.31205068       0.22818583
C        0.48943750       1.22055532      -0.76478817
C        0.49343750       1.84655532      -2.15578817
H        1.22143750       0.41555532      -0.70978817
H        0.74143750       1.97955532      -0.02678817
H       -0.49456250       0.83655532      -0.52878817
H       -0.27856250       2.61255532      -2.20878817
H        0.31934750       1.07425432      -2.91949217
H        1.45767750       2.34527432      -2.33333517
