28
Properties=species:S:1:pos:R:3 pbc="F F F"
C        0.17152529       3.11982087      -0.27109592
C       -1.27047471       1.09382087       0.16390408
C       -0.78047471       2.04182087      -0.73709592
C       -2.17547471       0.11682087      -0.24709592
C       -1.24347471       2.01382087      -2.05709592
C       -2.63047471       0.08482087      -1.56909592
C       -2.16947471       1.04482087      -2.47809592
O       -3.53447471      -0.87217913      -1.96309592
H       -0.96247471       1.11882087       1.20090408
H       -2.55447471      -0.59817913       0.46390408
H        0.40052529       2.98882087       0.78790408
H       -0.36847471       4.06282087      -0.35609592
H       -0.90147471       2.75482087      -2.76909592
H       -2.51347471       1.03582087      -3.50209592
H       -3.79147471      -0.76317913      -2.89809592
H        1.10848529       3.20604087      -0.84088592
C        1.84452529      -3.51717913       1.08690408
C        1.45752529      -0.96217913       0.92990408
C        2.12352529      -2.06417913       1.36090408
C        3.11652529      -0.29517913       2.20790408
N        2.09552529       0.13182087       1.47390408
N        3.15252529      -1.61817913       2.16290408
H        0.57052529      -0.96417913       0.30790408
H        1.71952529       1.06982087       1.53290408
H        0.89752529      -3.56917913       0.55390408
H        1.73552529      -4.04617913       2.03090408
H        3.76452529       0.31882087       2.81790408
H        2.61187529      -4.01606913       0.47675408
