27
Properties=species:S:1:pos:R:3 pbc="F F F"
C       -0.18271679       1.13287919       2.78155243
C        0.57128321      -0.66012081       1.14555243
C        0.13928321       0.59287919       1.44055243
C        0.52428321       0.42587919      -0.81444757
C        0.10028321       1.31187919       0.20155243
C        0.59928321       0.80987919      -2.14744757
C       -0.24171679       2.62287919      -0.15244757
C        0.26628321       2.11887919      -2.46544757
C       -0.16771679       3.00787919      -1.48344757
N        0.77228321      -0.77412081      -0.20544757
H        0.74428321      -1.45412081       1.86355243
H        1.13328321      -1.60812081      -0.67044757
H       -0.86871679       1.97487919       2.68255243
H        0.75128321       1.51787919       3.19355243
H        0.91828321       0.10987919      -2.90544757
H       -0.55871679       3.32387919       0.60555243
H        0.35028321       2.45787919      -3.48744757
H       -0.42671679       4.02287919      -1.75944757
H       -0.61087679       0.39083919       3.47152243
C       -0.52371679      -3.98612081       0.59655243
C       -1.57471679      -5.09412081       0.58455243
H       -0.13971679      -3.82112081      -0.40944757
H       -0.98371679      -3.06512081       0.94955243
H        0.29628321      -4.23812081       1.26855243
H       -1.81171679      -5.35112081       1.61755243
H       -1.19665679      -5.98317081       0.05856243
H       -2.49107679      -4.71973081       0.10484243
