15
Properties=species:S:1:pos:R:3 pbc="F F F"
C        0.13016900      -2.24641056       0.27457708
C        0.26116900      -2.79141056       1.69057708
H       -0.82583100      -2.53541056      -0.16142292
H        0.19216900      -1.16541056       0.30857708
H        0.94216900      -2.62241056      -0.34742292
H        1.20216900      -2.44541056       2.12157708
H        0.25892900      -3.89080056       1.65400708
H       -0.56824100      -2.39891056       2.29723708
C       -0.66083100       1.62358944       0.74157708
C       -0.07883100       1.23558944      -0.57742292
O       -0.83283100       1.02558944      -1.53742292
O        1.16916900       1.23158944      -0.63442292
H       -0.46783100       2.68658944       0.90057708
H       -0.17683100       1.06658944       1.54557708
H       -1.74455100       1.43916944       0.78073708
