13
Properties=species:S:1:pos:R:3 pbc="F F F"
C       -1.71419178       1.35648611       1.60986445
C       -0.58819178       0.67748611       0.83386445
O       -0.78919178       0.40848611      -0.36913555
O        0.48780822       0.40548611       1.41286445
H       -2.54919178       0.65948611       1.70286445
H       -2.06819178       2.22348611       1.04886445
H       -1.40870178       1.68784611       2.61329445
C        1.92680822      -1.28051389      -1.50113555
O        0.52680822      -1.38751389      -1.74213555
H        0.08280822      -0.70851389      -1.18013555
H        2.13380822      -0.28851389      -1.09613555
H        2.24545822      -2.04784389      -0.78024555
H        2.46129822      -1.40064389      -2.45501555
