18
Properties=species:S:1:pos:R:3 pbc="F F F"
C       -1.83403870       1.21807410      -0.54693558
C       -1.14803870       0.68907410      -1.80493558
C       -2.75703870       0.15507410       0.04006442
H       -1.07903870       1.49307410       0.19006442
H       -2.42203870       2.10207410      -0.79793558
H       -1.90103870       0.39507410      -2.52893558
H       -0.59903870      -0.21192590      -1.53793558
H       -3.47203870      -0.15892590      -0.72393558
H       -2.16603870      -0.70992590       0.34306442
H       -0.45702870       1.40163410      -2.27901958
H       -3.30804870       0.54381410       0.90912942
C        1.78596130       0.19407410       1.78906442
C        1.42196130      -0.54592590       0.50806442
O        2.02796130      -0.27792590      -0.54593558
O        0.49296130      -1.38492590       0.56206442
H        1.81496130      -0.49892590       2.63206442
H        0.99696130       0.92107410       1.99006442
H        2.74112130       0.73556410       1.72227442
