16
Properties=species:S:1:pos:R:3 pbc="F F F"
C        0.48069011       0.85868815       1.03913297
C        0.16669011       2.12468815       1.82713297
H        0.26369011       1.02268815      -0.01586703
H        1.53469011       0.60968815       1.15113297
H       -0.11630989       0.02768815       1.41613297
H        0.45969011       1.94968815       2.85913297
H       -0.91362989       2.32670815       1.78128397
H        0.75991011       2.97541815       1.46058797
C       -1.06630989      -1.28931185      -1.53186703
C        0.41569011      -1.69431185      -1.34586703
H       -1.70930989      -2.15431185      -1.36686703
H       -1.33130989      -0.52431185      -0.80386703
H       -1.23430989      -0.88231185      -2.52686703
H        0.56869011      -1.90131185      -0.28586703
H        1.05669011      -0.85531185      -1.61686703
H        0.70011011      -2.59137185      -1.91541803
