30
Properties=species:S:1:pos:R:3 pbc="F F F"
C       -2.32857521       1.48846435       1.05755003
C       -2.56157521       0.93946435       2.46055003
C       -2.10257521       2.99846435       0.98755003
H       -1.44857521       0.99346435       0.65555003
H       -3.17057521       1.24046435       0.40855003
H       -3.33557521       1.50646435       2.97555003
H       -1.34057521       3.28946435       1.70955003
H       -1.62506521       0.96285835       3.03709503
H       -2.88432521      -0.10672865       2.35418213
H       -1.70756521       3.23777885      -0.01079497
H       -3.02046521       3.56708565       1.19767723
C       -0.98457521      -0.05953565      -2.19344997
C       -1.46157521      -1.36853565      -2.85244997
C        0.10942479      -0.28653565      -1.17444997
C       -0.08257521      -1.15053565      -0.11444997
C        1.31642479       0.37246435      -1.27744997
C        0.92842479      -1.40453565       0.78655003
C        2.35342479       0.12146435      -0.37144997
C        2.14642479      -0.77753565       0.65155003
O        3.15542479      -1.08053565       1.54155003
H       -0.63057521       0.61946435      -2.97044997
H       -1.83057521       0.41446435      -1.69644997
H       -1.87557521      -2.00353565      -2.07444997
H       -1.03357521      -1.65353565       0.00655003
H        1.48042479       1.07346435      -2.08744997
H        0.76042479      -2.10653565       1.59055003
H        3.30942479       0.61646435      -0.46944997
H        2.93342479      -1.82353565       2.11255003
H       -0.62239521      -1.90957365      -3.31403497
H       -2.25825521      -1.17137465      -3.58486697
