31
Properties=species:S:1:pos:R:3 pbc="F F F"
C        1.98337976      -0.14763386       0.11117449
C        3.40737976      -0.69663386       0.02217449
C        1.13937976      -0.33963386      -1.12582551
C        0.47937976      -1.54763386      -1.35582551
C        0.96037976       0.70536614      -2.03482551
C       -0.31962024      -1.72563386      -2.48482551
C        0.16037976       0.53936614      -3.17182551
C       -0.48762024      -0.67663386      -3.38882551
O       -1.27962024      -0.85463386      -4.48482551
H        1.47737976      -0.64963386       0.93217449
H        2.03837976       0.90836614       0.35817449
H        3.89137976      -0.55463386       0.99017449
H        0.58037976      -2.36263386      -0.65282551
H        1.45437976       1.65236614      -1.87082551
H       -0.79062024      -2.67863386      -2.66582551
H        0.03337976       1.34836614      -3.87682551
H       -1.71062024      -1.71563386      -4.48682551
H        3.97126476      -0.16680886      -0.75969551
H        3.42681476      -1.77418086      -0.19808551
C       -0.32862024       1.01636614       2.62617449
C        0.84837976       0.60036614       3.52017449
C       -1.64162024       1.00936614       3.37517449
O       -1.69262024       1.31736614       4.56817449
N       -2.71662024       0.63536614       2.69217449
H       -0.17962024       2.00936614       2.20417449
H       -0.40562024       0.30736614       1.80117449
H        1.72237976       0.47536614       2.88117449
H       -3.60662024       0.63136614       3.16917449
H       -2.65362024       0.39536614       1.71417449
H        0.63998876      -0.33814886       4.05474249
H        1.14495776       1.38810714       4.22834549
