20
Properties=species:S:1:pos:R:3 pbc="F F F"
C        2.43933185      -1.19220705      -0.83728408
C        1.33333185      -1.07420705       0.21371592
O        1.46033185      -0.30520705       1.16371592
N        0.24433185      -1.80420705       0.03371592
H        3.39633185      -1.28020705      -0.32128408
H        2.44333185      -0.28520705      -1.44128408
H       -0.50266815      -1.75720705       0.71271592
H        0.17733185      -2.41020705      -0.76128408
H        2.30937185      -2.04303705      -1.52226408
C       -1.42066815       1.10479295      -0.02128408
C       -2.50166815       0.76879295      -1.03828408
C       -1.48966815       2.54379295       0.51171592
H       -1.57966815       0.41079295       0.80271592
H       -0.43966815       0.92979295      -0.46128408
H       -3.47766815       0.90679295      -0.57528408
H       -1.44166815       3.24579295      -0.32228408
H       -2.39875815      -0.27783705      -1.36073408
H       -2.46599615       1.41379295      -1.92862408
H       -2.44088015       2.67744295       1.04774592
H       -0.61915815       2.75431295       1.15037592
