31
Properties=species:S:1:pos:R:3 pbc="F F F"
C        1.16453166       2.95073456       2.25819800
C       -1.96446834       1.63373456      -0.44780200
C       -0.63046834       1.71973456      -0.94380200
C       -2.24446834       1.99673456       0.87019800
C        0.39553166       2.16873456      -0.07580200
C       -1.23246834       2.44373456       1.69219800
C        0.08753166       2.52773456       1.25919800
O       -3.02346834       1.17073456      -1.17180200
H       -0.40446834       1.41873456      -1.95580200
H       -2.76346834       0.89873456      -2.07180200
H       -3.25646834       1.92373456       1.23519800
H        1.41653166       2.22273456      -0.43080200
H       -1.47446834       2.72873456       2.70619800
H        0.71853166       3.31873456       3.18419800
H        1.73853166       3.76373456       1.81019800
H        1.83824166       2.11037456       2.48158800
C        3.32653166      -3.17626544       0.34019800
C       -0.54746834      -1.83826544      -1.10280200
C        0.08653166      -2.92726544      -1.72580200
C        0.07153166      -1.18226544      -0.01580200
C        1.35353166      -3.37226544      -1.21280200
C        1.33353166      -1.61626544       0.44319800
C        1.97853166      -2.71526544      -0.14780200
H       -1.50746834      -1.48026544      -1.43280200
H       -0.38346834      -3.43726544      -2.55580200
H       -0.42446834      -0.37126544       0.49019800
H        1.82453166      -4.23026544      -1.66880200
H        1.81253166      -1.03726544       1.18219800
H        3.20853166      -4.13926544       0.83819800
H        3.71153166      -2.46726544       1.07019800
H        4.06058166      -3.28092744      -0.47234200
