37
Properties=species:S:1:pos:R:3 pbc="F F F"
C        0.84877347      -1.60164734      -0.65012120
C        1.84477347      -2.74964734      -0.83812120
C        0.52777347      -1.29964734       0.79387880
C       -0.58122653      -1.67264734       1.44887880
C        1.31477347      -0.56464734       1.73687880
C        0.60277347      -0.52864734       2.94687880
C        2.52577347       0.12435266       1.65387880
C        1.05677347       0.14235266       4.06187880
C        3.00377347       0.75035266       2.77287880
C        2.27377347       0.76235266       3.95587880
N       -0.54622653      -1.21564734       2.73087880
H        1.22877347      -0.69564734      -1.12312120
H       -0.08122653      -1.83764734      -1.15912120
H        1.76677347      -3.07464734      -1.87812120
H       -1.40222653      -2.23264734       1.00887880
H       -1.31522653      -1.31664734       3.38387880
H        3.07577347       0.14935266       0.72687880
H        0.46777347       0.22835266       4.96087880
H        3.95277347       1.26435266       2.72987880
H        2.66977347       1.29735266       4.80887880
H        1.58252447      -3.59366834      -0.18325120
H        2.87428557      -2.37983634      -0.72260080
C       -1.08722653       2.20635266      -4.99512120
C       -2.38322653       0.43335266      -1.29012120
C       -3.18922653       0.30135266      -2.41012120
C       -1.17122653       1.10135266      -1.36412120
C       -2.75422653       0.85035266      -3.62312120
C       -0.75322653       1.67335266      -2.55012120
C       -1.55222653       1.58235266      -3.69012120
H       -2.70122653       0.00935266      -0.34712120
H       -4.13422653      -0.21964734      -2.34512120
H       -0.55222653       1.18535266      -0.48112120
H       -3.37322653       0.75535266      -4.50312120
H        0.18977347       2.20135266      -2.58412120
H       -0.33422653       2.96435266      -4.77812120
H       -1.93422653       2.71135266      -5.45312120
H       -0.67124853       1.47176866      -5.70035020
