19
Properties=species:S:1:pos:R:3 pbc="F F F"
C       -0.22853041      -1.44434813      -2.02900790
C        0.92446959      -0.87334813      -2.84700790
H        0.06046959      -1.56234813      -0.98600790
H       -1.08953041      -0.77834813      -2.09100790
H       -0.51253041      -2.41834813      -2.42900790
H        0.58946959      -0.79634813      -3.88200790
H        1.79990959      -1.53814013      -2.80630590
H        1.18213959       0.13646787      -2.49504790
C       -0.56153041       0.35565187       1.37699210
C        0.83746959       0.22465187       1.91999210
C       -1.00853041       1.75365187       1.67699210
H       -1.23253041      -0.38434813       1.81499210
H       -0.53353041       0.23465187       0.29599210
H        0.81346959      -0.17534813       2.93499210
H        1.43446959      -0.40834813       1.26199210
H       -1.50653041       1.75865187       2.64899210
H       -1.69153041       2.12665187       0.91199210
H        1.20905959       1.25985587       1.93650710
H       -0.08607041       2.35155687       1.71666010
