24
Properties=species:S:1:pos:R:3 pbc="F F F"
C        2.18737233      -2.57056981       1.76022643
C       -0.41162767      -0.22056981      -0.82777357
C        0.90037233      -0.49356981      -1.21977357
C       -0.88162767      -0.69956981       0.39822643
C        1.73837233      -1.25256981      -0.38077357
C       -0.03862767      -1.45656981       1.22722643
C        1.28137233      -1.73856981       0.85422643
O       -1.22762767       0.51943019      -1.63577357
H       -0.82262767       0.66343019      -2.50177357
H        1.27337233      -0.12556981      -2.16677357
H       -1.90062767      -0.50156981       0.69422643
H        2.75337233      -1.46456981      -0.69377357
H       -0.41962767      -1.82956981       2.16922643
H        2.76937233      -3.25356981       1.14122643
H        1.55037233      -3.18456981       2.39222643
H        2.88061933      -1.99667981       2.39272443
C       -0.80362767       3.66843019       0.29722643
N       -1.98362767       2.90843019      -0.20677357
H       -2.28262767       2.20543019       0.45722643
H       -2.77162767       3.52743019      -0.36577357
H       -1.78262767       2.43543019      -1.08077357
H       -1.03762767       4.09243019       1.27822643
H       -0.58062767       4.50043019      -0.37977357
H        0.09120333       3.03306019       0.37197543
