16
Properties=species:S:1:pos:R:3 pbc="F F F"
C       -1.09347012       1.48807339       0.68738350
C        0.25852988       1.59207339      -1.72061650
S        0.45752988       2.08007339       0.00538350
H       -1.18547012       0.41707339       0.53938350
H       -1.08347012       1.72007339       1.74338350
H       -1.93847012       1.98307339       0.21138350
H        0.02452988       0.53007339      -1.77361650
H        1.21052988       1.75307339      -2.22161650
H       -0.52850012       2.15403339      -2.24481650
C        0.87652988      -1.66892661       1.41538350
C       -0.07747012      -1.91292661       0.22238350
O       -1.30047012      -2.16692661       0.37438350
O        0.41652988      -1.85992661      -0.92261650
H        1.52352988      -0.83192661       1.14938350
H        1.50952988      -2.54792661       1.55638350
H        0.37325988      -1.44295661       2.36704350
