16
Properties=species:S:1:pos:R:3 pbc="F F F"
C        1.69804765      -0.37006562      -0.63748446
C        2.03504765      -1.28606562       0.52251554
H        2.33604765      -0.53906562      -1.50148446
H        0.67804765      -0.56906562      -0.95848446
H        1.74604765       0.65893438      -0.30448446
H        1.81904765      -2.30206562       0.19151554
H        3.09840765      -1.25847562       0.80268554
H        1.38936765      -1.08209562       1.38940554
C       -1.48595235       1.46493438       0.30151554
C       -2.24395235       0.20593438      -0.18948446
H       -2.15895235       2.16493438       0.79551554
H       -0.73595235       1.16493438       1.03151554
H       -0.98095235       1.95693438      -0.52648446
H       -2.78295235      -0.22306562       0.65451554
H       -1.51295235      -0.53306562      -0.51148446
H       -2.93322235       0.38555438      -1.02772446
