16
Properties=species:S:1:pos:R:3 pbc="F F F"
C        0.81345800      -1.21207772       1.18766374
C        2.21745800      -1.85807772       1.05966374
H        0.04145800      -1.90207772       0.84766374
H        0.61345800      -0.97307772       2.23366374
H        0.76745800      -0.29707772       0.60066374
H        2.25245800      -2.75707772       1.67066374
H        2.42615500      -2.11174632       0.00985524
H        2.95034800      -1.13015382       1.43781574
C       -1.62954200       0.76792228      -0.96633626
C       -1.39654200       2.29692228      -1.28433626
H       -1.46354200       0.57792228       0.09466374
H       -2.65854200       0.50992228      -1.21033626
H       -0.97454200       0.14192228      -1.56533626
H       -1.54254200       2.45992228      -2.35133626
H       -0.37897250       2.58765628      -0.98429286
H       -2.09077100       2.95714828      -0.74382936
