23
Properties=species:S:1:pos:R:3 pbc="F F F"
C        1.75829724       2.86957928      -0.98212835
C        0.76029724      -0.61542072      -0.86812835
C        1.09629724       1.53957928      -1.16312835
C        0.05329724       1.16557928      -1.95112835
N        1.51429724       0.40557928      -0.49712835
N       -0.13870276      -0.18442072      -1.74712835
H        0.88429724      -1.63942072      -0.53412835
H       -0.82170276      -0.77042072      -2.21312835
H       -0.51570276       1.80657928      -2.60212835
H        2.56329724       2.95757928      -1.70112835
H        2.21729724       2.84257928       0.00287165
H        1.08667724       3.73822928      -1.04828335
C       -1.36670276      -1.47042072       1.74387165
C       -1.74670276      -2.91742072       2.07487165
C       -1.55270276      -0.48642072       2.90087165
H       -0.32070276      -1.44142072       1.44187165
H       -1.97670276      -1.12542072       0.90787165
H       -2.74670276      -2.91642072       2.50787165
H       -0.88470276      -0.73642072       3.72187165
H       -1.27370276       0.50057928       2.53587165
H       -1.04116376      -3.34392072       2.80309665
H       -1.81307276      -3.53129872       1.16451465
H       -2.58156276      -0.42747272       3.28555325
