23
Properties=species:S:1:pos:R:3 pbc="F F F"
C       -0.68307461      -3.35898724       1.01906511
C        0.26992539       0.15301276       0.07106511
C        0.33992539      -1.19098724       0.34206511
C       -0.92407461       0.83801276       0.15806511
C       -0.76507461      -1.89098724       0.75706511
C       -2.06107461       0.14401276       0.54006511
C       -1.96807461      -1.23698724       0.84406511
H        1.16892539       0.65201276      -0.24093489
H        1.28892539      -1.69498724       0.22906511
H       -0.97507461       1.89401276      -0.07093489
H       -3.01307461       0.65501276       0.60806511
H       -0.50907461      -3.86298724       0.07006511
H       -1.65707461      -3.69198724       1.36406511
H       -2.86007461      -1.77298724       1.13906511
H        0.08164539      -3.66330524       1.74885511
C        2.52892539       2.91001276      -0.88893489
C        2.53692539       3.08001276      -2.41793489
H        2.78692539       3.83901276      -0.38393489
H        1.51892539       2.67201276      -0.56893489
H        3.22192539       2.12901276      -0.59793489
H        1.81392539       3.86101276      -2.65893489
H        3.53746539       3.40464896      -2.73969489
H        2.24257539       2.16751556      -2.95710489
