15
Properties=species:S:1:pos:R:3 pbc="F F F"
C        0.64651085      -1.28208311      -1.77046482
C        1.11151085      -0.23408311      -0.79446482
O        0.91151085      -0.41308311       0.44053518
O        1.68951085       0.76791689      -1.26746482
H       -0.42548915      -1.42408311      -1.62246482
H        1.12351085      -2.23908311      -1.55046482
H        0.79492085      -1.01706311      -2.82769482
C       -2.11248915      -0.18008311       1.73953518
C       -2.15548915       1.32991689       1.59453518
H       -1.40848915      -0.46308311       2.52353518
H       -3.10348915      -0.55808311       1.99553518
H       -1.79948915      -0.63208311       0.79853518
H       -2.83148915       1.56891689       0.77153518
H       -1.16335915       1.73734489       1.35022518
H       -2.56227915       1.76038489       2.52147518
