30
Properties=species:S:1:pos:R:3 pbc="F F F"
C        2.68840414      -0.27753352       0.79008062
C        3.86140414       0.70546648       0.92408062
C        2.51640414      -1.32853352       1.89808062
H        1.78940414       0.33546648       0.74208062
H        2.82340414      -0.79053352      -0.16191938
H        3.76440414       1.24346648       1.86808062
H        3.40240414      -1.96353352       1.92108062
H        3.81544614       1.40236648       0.07424062
H        4.83544414       0.19976648       0.84998062
H        2.39514714      -0.84563352       2.87897062
H        1.63071714      -1.94543352       1.68605062
C       -2.37659586      -1.24953352       1.91708062
C       -0.58859586       0.93746648      -0.63191938
C       -1.26459586      -0.27653352      -0.29491938
C       -1.74759586      -0.15453352       1.07108062
C       -1.38759586       1.08746648       1.48608062
C        0.02840414       1.16046648      -1.88291938
C       -0.03659586       0.13346648      -2.82091938
C       -1.30859586      -1.29553352      -1.26391938
C       -0.70159586      -1.07353352      -2.51291938
N       -0.69359586       1.74146648       0.48408062
H       -0.31359586       2.67746648       0.56108062
H        0.52840414       2.10146648      -2.08591938
H       -1.64859586       1.41446648       2.48808062
H        0.42340414       0.25646648      -3.78891938
H       -1.78159586      -2.25253352      -1.06491938
H       -1.80159586      -1.30153352       2.84808062
H       -2.23059586      -2.18153352       1.37208062
H       -0.75059586      -1.86053352      -3.25391938
H       -3.46445186      -1.24953352       2.08008062
