16
Properties=species:S:1:pos:R:3 pbc="F F F"
C       -0.24599063       0.24628877      -2.12469142
C        0.48400937      -1.08171123      -2.34869142
H        0.08600937       0.96928877      -2.86469142
H       -1.32199063       0.10728877      -2.23269142
H       -0.01899063       0.63728877      -1.14169142
H        0.44200937      -1.27871123      -3.42069142
H        1.53949937      -1.02207123      -2.04476042
H       -0.01809063      -1.92521123      -1.85230442
C       -0.25499063       0.14728877       1.52430858
C        0.02600937       0.69128877       2.95230858
H        0.60500937      -0.37371123       1.11130858
H       -1.08299063      -0.55671123       1.56930858
H       -0.54499063       0.98228877       0.88930858
H        0.15800937      -0.15871123       3.62230858
H       -0.85599063       1.23328877       3.29430858
H        0.90481937       1.34808877       3.03174858
