26
Properties=species:S:1:pos:R:3 pbc="F F F"
C       -0.19008277       1.54577657       2.86386358
C        0.53491723       2.69377657       3.58186358
C       -1.05908277       0.68277657       3.79286358
H       -0.82108277       1.95377657       2.07386358
H        0.54491723       0.88877657       2.39986358
H        1.13691723       2.28177657       4.39486358
H       -1.94508277       1.22877657       4.11286358
H       -1.38708277      -0.20322343       3.24786358
H       -0.48008277       0.36777657       4.66186358
H        1.19934703       3.21330657       2.87573358
H       -0.19957137       3.38953657       4.01366358
C        0.77491723      -2.87822343      -2.73113642
C       -0.39708277       0.80477657      -0.82013642
C       -1.12408277      -0.36522343      -0.60213642
C        0.72091723       0.77677657      -1.64813642
C       -0.73308277      -1.55722343      -1.20713642
C        1.09791723      -0.42022343      -2.27013642
C        0.37591723      -1.59022343      -2.05413642
H       -0.70408277       1.72877657      -0.35113642
H       -1.98708277      -0.35622343       0.04686358
H        1.28891723       1.67977657      -1.82113642
H       -1.30108277      -2.45822343      -1.02913642
H        1.95591723      -0.43022343      -2.92913642
H        0.56291723      -3.71422343      -2.06213642
H        1.85291723      -2.86322343      -2.90113642
H        0.26933201      -3.04603443      -3.69353642
