20
Properties=species:S:1:pos:R:3 pbc="F F F"
C        1.25796298       0.13226457       1.94738024
C        1.72996298      -0.43973543       0.61738024
O        1.12696298      -0.20773543      -0.42961976
N        2.81496298      -1.19173543       0.65638024
H        2.11096298       0.57326457       2.46738024
H        0.89196298      -0.70273543       2.55038024
H        3.13496298      -1.60473543      -0.20761976
H        3.26596298      -1.41173543       1.53138024
H        0.46264298       0.88451357       1.83971024
C       -2.15503702       0.00826457      -0.65761976
C       -3.51703702       0.47126457      -1.10961976
N       -1.18103702       1.10926457      -0.89661976
H       -2.18903702      -0.30673543       0.38938024
H       -1.87703702      -0.86973543      -1.25361976
H       -4.22303702      -0.36073543      -1.05261976
H       -3.47603702       0.79926457      -2.15061976
H       -1.40903702       1.93426457      -0.34961976
H       -0.22403702       0.78526457      -0.75161976
H       -1.21403702       1.37026457      -1.88061976
H       -3.86274702       1.30256857      -0.47762976
