23
Properties=species:S:1:pos:R:3 pbc="F F F"
C       -2.59562011      -0.54852444       0.86017267
C       -0.67062011      -0.25652444      -0.68382733
C       -1.18562011      -0.86352444       0.43417267
C        0.60237989      -0.53752444      -1.13882733
C        1.41237989      -1.38652444      -0.42082733
C       -0.36162011      -1.70552444       1.18217267
C        0.94237989      -1.97452444       0.74817267
H       -1.28562011       0.43047556      -1.24882733
H        0.97437989      -0.07052444      -2.03982733
H       -3.09662011      -1.47852444       1.13217267
H       -3.14062011      -0.12052444       0.01717267
H        2.41437989      -1.59852444      -0.76782733
H       -0.73662011      -2.18652444       2.07417267
H        1.57337989      -2.64652444       1.31017267
H       -2.64272011       0.14995956       1.70864267
C        0.84337989       3.24647556      -1.22782733
C        1.03437989       3.07147556       0.29817267
H        1.09237989       4.26547556      -1.52582733
H        1.49637989       2.55147556      -1.75582733
H       -0.18462011       3.02247556      -1.51082733
H        0.66637989       2.08447556       0.58817267
H        0.50555989       3.84276556       0.87735967
H        2.10875989       3.13017626       0.52679667
