16
Properties=species:S:1:pos:R:3 pbc="F F F"
C        0.18438696      -1.27666114      -1.03753573
C        0.28438696      -2.36966114      -2.12753573
H        1.04538696      -0.61766114      -1.07853573
H       -0.70761304      -0.67666114      -1.22353573
H        0.08438696      -1.70666114      -0.03953573
H       -0.58061304      -3.02366114      -2.01053573
H        1.19398696      -2.96731114      -1.96801973
H        0.28438696      -1.99551114      -3.16194973
C       -0.39461304       1.89633886       0.84446427
C       -0.06861304       1.75533886       2.32146427
H        0.35938696       1.39833886       0.23546427
H       -1.36161304       1.43633886       0.63646427
H       -0.43661304       2.95033886       0.56846427
H       -0.01561304       0.70033886       2.56446427
H        0.91107696       2.21447886       2.51997227
H       -0.84265304       2.22381886       2.94707027
