20
Properties=species:S:1:pos:R:3 pbc="F F F"
C       -1.30046569       0.07473567      -2.16671505
C       -1.55546569       1.20273567      -3.15071505
H       -0.24146569      -0.17826433      -2.14971505
H       -1.86046569      -0.81026433      -2.47271505
H       -1.62646569       0.36873567      -1.16871505
H       -1.23346569       0.85673567      -4.12271505
H       -0.96160569       2.07962567      -2.85342505
H       -2.62447569       1.45456567      -3.21241505
C        0.61653431      -0.37826433       0.95628495
C        1.18753431      -1.69926433       1.48328495
C       -0.63546569       0.06873567       1.70428495
O        1.59953431       0.63873567       1.10628495
H        0.38353431      -0.48626433      -0.09871505
H        1.37153431      -1.60126433       2.55528495
H       -0.89646569       1.08373567       1.39928495
H       -0.46646569       0.05173567       2.78228495
H       -1.47246569      -0.58026433       1.45428495
H        1.76353431       0.77073567       2.04728495
H        2.12697431      -1.93279433       0.96086495
H        0.45557431      -2.50059033       1.30408495
