20
Properties=species:S:1:pos:R:3 pbc="F F F"
C       -0.08088149      -2.75004001       0.54947726
C        0.90911851      -3.88504001       0.31247726
C        0.23511851      -1.96704001       1.76747726
H       -0.11088149      -2.07604001      -0.29652274
H       -1.08288149      -3.16904001       0.65747726
H        0.49011851      -4.47604001      -0.50452274
H        1.28911851      -1.70804001       1.81447726
H       -0.35488149      -1.05004001       1.77047726
H       -0.04288149      -2.54504001       2.64647726
H        1.90140851      -3.52933001      -0.00189074
H        0.99027851      -4.55445001       1.18155726
C        0.07811851       0.60095999      -0.93652274
C       -1.37888149       2.97395999      -0.98252274
S        0.14611851       2.28995999      -0.29052274
H        0.11411851       0.60695999      -2.02452274
H        0.92911851       0.03795999      -0.55552274
H       -0.84688149       0.12495999      -0.61052274
H       -1.48788149       3.98795999      -0.59752274
H       -2.22388149       2.39595999      -0.62252274
H       -1.38250149       3.02324999      -2.08141174
