25
Properties=species:S:1:pos:R:3 pbc="F F F"
C       -1.90006670      -0.65601510      -0.24323427
C       -3.29206670      -0.38801510       0.30376573
C       -1.78706670      -0.64301510      -1.75923427
O       -2.79406670      -0.49401510      -2.47323427
O       -0.62906670      -0.83201510      -2.23323427
H       -1.23406670       0.10798490       0.15476573
H       -1.54706670      -1.62101510       0.12876573
H       -3.61906670       0.59298490      -0.04323427
H       -3.25079670      -0.42403590       1.40240573
H       -3.99973670      -1.15321570      -0.04791427
C        3.23993330       0.63598490      -0.83823427
C        0.42393330       0.35698490       2.41376573
C        0.71093330       1.57498490       1.81376573
C        1.06593330      -0.78001510       1.95376573
C        1.64493330       1.66298490       0.79476573
C        2.00593330      -0.67301510       0.92676573
C        2.30293330       0.54798490       0.33976573
H       -0.31506670       0.28798490       3.19776573
H        0.20193330       2.46998490       2.14076573
H        0.82693330      -1.74301510       2.37876573
H        1.81793330       2.61098490       0.32076573
H        2.48393330      -1.56901510       0.55876573
H        2.70893330       1.15498490      -1.63823427
H        3.46693330      -0.36701510      -1.20223427
H        4.17958330       1.17119390      -0.63672427
