26
Properties=species:S:1:pos:R:3 pbc="F F F"
C       -2.92173399      -0.07467029      -1.45529160
C       -0.21573399      -0.53267029       1.16370840
C       -0.03173399      -1.91367029       1.14070840
C       -1.13973399       0.06332971       0.31370840
C       -1.88273399      -0.70867029      -0.57429160
C       -0.76773399      -2.69467029       0.25170840
C       -1.68573399      -2.08767029      -0.60529160
H        0.34626601       0.06332971       1.86270840
H        0.66926601      -2.37967029       1.81770840
H       -1.28673399       1.13332971       0.35370840
H       -0.63773399      -3.76567029       0.23670840
H       -3.08973399       0.96132971      -1.15629160
H       -3.85673399      -0.61367029      -1.29329160
H       -2.24573399      -2.69767029      -1.29829160
H       -2.67474599      -0.11272029      -2.52652860
C        2.22426601       1.95432971      -0.01629160
C        2.77826601       2.61132971       1.25570840
C        2.91726601       2.41832971      -1.29129160
H        2.35026601       0.87332971       0.06570840
H        1.15526601       2.15832971      -0.10429160
H        2.62726601       3.69132971       1.20570840
H        3.99026601       2.26632971      -1.23429160
H        2.53826601       1.80432971      -2.09729160
H        3.84607201       2.37503971       1.37385140
H        2.21140101       2.26571971       2.13275740
H        2.69999501       3.47208971      -1.52015060
