25
Properties=species:S:1:pos:R:3 pbc="F F F"
C       -1.75662140       2.02420928      -0.53419064
C       -3.04862140       1.71920928       0.21380936
C       -1.74162140       1.54120928      -1.98119064
O       -2.77662140       1.07920928      -2.52019064
O       -0.65762140       1.60620928      -2.59719064
H       -1.50662140       3.08320928      -0.48019064
H       -0.95962140       1.49320928      -0.01119064
H       -2.83462140       1.78520928       1.27880936
H       -3.35462140       0.69120928       0.01880936
H       -3.89054140       2.40089928       0.02281936
C        3.15737860      -0.10579072       2.66280936
C        0.82437860      -0.83679072      -0.24519064
C        0.39937860      -2.12979072       0.05080936
C        1.71737860      -0.18079072       0.60980936
C        2.19137860      -0.81579072       1.75880936
C        0.86237860      -2.77379072       1.18580936
C        1.76137860      -2.11679072       2.04480936
H        0.47237860      -0.34179072      -1.13819064
H       -0.29362140      -2.63479072      -0.60619064
H        2.04237860       0.82220928       0.36880936
H        0.52337860      -3.77379072       1.41780936
H        2.85637860      -0.28279072       3.69580936
H        3.10237860       0.96720928       2.47980936
H        2.11537860      -2.61979072       2.93380936
H        4.20255860      -0.42423072       2.53557936
