31
Properties=species:S:1:pos:R:3 pbc="F F F"
C        1.76320432      -2.01634991       3.86399576
C       -0.46979568      -0.40634991       1.26099576
C       -1.73079568      -0.69834991       1.76799576
C        0.65620432      -0.83934991       1.94599576
C        0.54120432      -1.55634991       3.12799576
C       -1.85279568      -1.41934991       2.95599576
C       -0.72279568      -1.84634991       3.63399576
H       -0.37179568       0.15165009       0.33999576
H       -2.61479568      -0.37434991       1.23799576
H        1.63220432      -0.60434991       1.54699576
H       -2.83479568      -1.65134991       3.34499576
H        1.52320432      -2.12434991       4.92199576
H        2.53920432      -1.25334991       3.77699576
H       -0.82479568      -2.40534991       4.55199576
H        2.14910432      -2.98072991       3.50198576
C       -1.59779568       3.39465009      -2.35400424
C        1.04220432       0.00465009      -2.24900424
C       -0.23579568      -0.12134991      -2.78300424
C        1.45820432       1.23065009      -1.72300424
C       -1.07679568       0.97465009      -2.80000424
C        0.60820432       2.31465009      -1.75500424
C       -0.67179568       2.20965009      -2.28700424
O        1.85820432      -1.06534991      -2.23600424
H       -0.57379568      -1.07234991      -3.16500424
H        1.45720432      -1.83034991      -2.64400424
H        2.45520432       1.32065009      -1.31900424
H       -2.08179568       0.85965009      -3.17200424
H        0.95120432       3.25065009      -1.37600424
H       -1.74479568       3.82965009      -1.38100424
H       -2.56979568       3.01565009      -2.66000424
H       -1.30778568       4.17998009      -3.06755424
