29
Properties=species:S:1:pos:R:3 pbc="F F F"
C       -1.90671817       2.46667149      -0.26287746
C       -1.24371817       1.35467149       0.52512254
C        0.09728183       1.48167149       0.95112254
C       -1.96871817       0.20867149       0.88212254
C        0.71928183       0.49267149       1.74012254
C       -1.35471817      -0.78332851       1.66112254
C       -0.02671817      -0.64432851       2.08912254
O        0.48428183      -1.67532851       2.84112254
H       -2.72171817       2.05167149      -0.85987746
H       -1.17071817       2.91267149      -0.93487746
H        0.64728183       2.36667149       0.66012254
H       -2.99771817       0.08667149       0.56212254
H        1.74228183       0.58967149       2.08312254
H       -1.90271817      -1.67332851       1.94212254
H        1.40028183      -1.54432851       3.10312254
H       -2.29576317       3.29107149       0.35275254
C        0.52828183       1.18067149      -3.06287746
C        1.00328183      -0.88132851      -1.64387746
N        1.30528183       0.35067149      -2.10187746
N       -0.11071817      -1.51332851      -1.99887746
N        1.87828183      -1.53332851      -0.87987746
H        2.11728183       0.80967149      -1.71487746
H       -0.75771817      -1.07832851      -2.64087746
H       -0.31371817      -2.43332851      -1.63587746
H        2.77128183      -1.11432851      -0.65887746
H        1.66628183      -2.45632851      -0.52787746
H       -0.34971817       1.56567149      -2.54087746
H        0.19728183       0.53967149      -3.88187746
H        1.06094083       2.03900149      -3.49824746
