37
Properties=species:S:1:pos:R:3 pbc="F F F"
C        0.83816559       2.05155276       0.18684566
C        1.97716559       2.94455276       0.67184566
C       -0.25383441       2.78655276      -0.54015434
C       -0.24983441       2.85755276      -1.93315434
C       -1.29283441       3.38855276       0.16884566
C       -1.26383441       3.52355276      -2.61315434
C       -2.31283441       4.05655276      -0.51015434
C       -2.29583441       4.11655276      -1.89915434
H        1.23816559       1.27155276      -0.45815434
H        0.39216559       1.56255276       1.05184566
H        1.55516559       3.74755276       1.27484566
H        0.55616559       2.40255276      -2.49215434
H       -1.31183441       3.33955276       1.24884566
H       -1.25083441       3.57255276      -3.69315434
H       -3.11583441       4.52455276       0.04184566
H       -3.08783441       4.62955276      -2.42615434
H        2.54674259       3.35507276      -0.17494534
H        2.65579459       2.34930276       1.30044766
C       -0.51983441      -4.08844724      -1.71815434
C        0.08816559      -2.63844724       0.34284566
C        0.37916559      -3.64944724      -0.62515434
C        1.21316559      -2.53444724       1.19684566
C        1.62916559      -4.10644724      -0.34615434
C       -0.97283441      -0.90744724       1.63584566
C        0.15916559      -0.82944724       2.46684566
C       -1.01383441      -1.80244724       0.56984566
C        1.26216559      -1.63444724       2.25084566
N        2.12916559      -3.45144724       0.75284566
H       -1.82383441      -0.26744724       1.81884566
H        0.16716559      -0.12944724       3.29084566
H       -1.88283441      -1.86644724      -0.06715434
H        2.13516559      -1.58444724       2.87884566
H        0.07816559      -4.42044724      -2.56515434
H       -1.10983441      -3.23044724      -2.04515434
H        2.14316559      -4.88744724      -0.89515434
H        3.05716559      -3.62644724       1.13684566
H       -1.20020341      -4.89620724      -1.41054034
