41
Properties=species:S:1:pos:R:3 pbc="F F F"
C       -1.46560687       0.52020890      -0.45332636
C       -0.75360687       0.83120890      -1.77332636
C       -1.24060687      -0.88679110       0.03667364
C       -0.10960687      -1.38679110       0.61567364
C       -2.16860687      -1.99579110      -0.03532636
C       -1.52460687      -3.13179110       0.53167364
C       -3.47660687      -2.14679110      -0.52732636
C       -2.14160687      -4.37479110       0.62267364
C       -4.09860687      -3.39279110      -0.42232636
C       -3.43660687      -4.49179110       0.14567364
N       -0.27860687      -2.71779110       0.93067364
H       -1.13260687       1.21220890       0.30867364
H       -2.53860687       0.66720890      -0.58332636
H        0.32439313       0.77420890      -1.61532636
H        0.79539313      -0.82379110       0.79567364
H        0.43739313      -3.29879110       1.36467364
H       -3.99360687      -1.30379110      -0.95932636
H       -1.63360687      -5.21479110       1.07067364
H       -5.11160687      -3.51579110      -0.78232636
H       -3.94460687      -5.44179110       0.22467364
H       -1.02445687       1.82733890      -2.15327136
H       -1.02967687       0.07899890      -2.52696536
C        0.28139313       2.99720890       1.60367364
C        0.73839313       4.00620890       2.65467364
C        1.36039313       2.60120890       0.63467364
C        1.63139313       3.39320890      -0.48532636
C        2.11439313       1.44320890       0.85067364
C        2.62639313       3.02920890      -1.39132636
C        3.11439313       1.07420890      -0.04932636
C        3.37239313       1.87320890      -1.16232636
O        4.33239313       1.50920890      -2.05332636
H       -0.09260687       2.10520890       2.11267364
H       -0.53960687       3.42420890       1.02767364
H        1.13139313       4.87920890       2.13267364
H        1.07039313       4.30320890      -0.64832636
H        1.92639313       0.84420890       1.72767364
H        2.83039313       3.64620890      -2.25332636
H        3.69739313       0.18020890       0.11667364
H        4.22439313       2.02720890      -2.88232636
H        1.51283313       3.54758890       3.28706364
H       -0.11521687       4.34894890       3.25790364
