23
Properties=species:S:1:pos:R:3 pbc="F F F"
C       -2.86080167       0.60152660       0.96601750
C        0.94919833       0.50252660       1.02701750
C        1.28519833       1.18852660      -0.13798250
C       -0.38980167       0.32252660       1.38101750
C       -1.42380167       0.82352660       0.57601750
C        0.25319833       1.71152660      -0.92298250
C       -1.08380167       1.52252660      -0.58798250
H        1.73019833       0.09552660       1.65301750
H        2.31919833       1.31852660      -0.42598250
H       -0.62380167      -0.22247340       2.27101750
H        0.50519833       2.25352660      -1.82298250
H       -3.44380167       1.49052660       0.72701750
H       -2.79880167       0.53852660       2.02301750
H       -1.85680167       1.92752660      -1.22598250
H       -3.31116167      -0.27495540       0.47718750
C        2.04419833      -2.33947340      -1.15098250
C        1.07219833      -3.46447340      -0.92298250
H        2.72619833      -2.26347340      -0.31198250
H        2.61619833      -2.52947340      -2.05898250
H        1.49919833      -1.40247340      -1.25998250
H        1.59819833      -4.41047340      -0.94798250
H        0.41819833      -3.44147340      -1.79398250
H        0.45935833      -3.43098040      -0.01013250
