16
Properties=species:S:1:pos:R:3 pbc="F F F"
C        2.06785490       0.34636902       0.44008748
C        2.48485490      -1.07663098       0.04308748
H        2.93385490       1.00936902       0.45908748
H        1.33385490       0.75036902      -0.25191252
H        1.60085490       0.35036902       1.42608748
H        1.62685490      -1.73563098       0.17708748
H        3.31298490      -1.41716098       0.68202928
H        2.79594490      -1.11462098      -1.01132252
C       -1.53414510       0.25036902      -0.10891252
C       -3.01614510       0.47836902      -0.37291252
H       -1.34414510       0.20736902       0.96508748
H       -1.21814510      -0.68663098      -0.56891252
H       -0.96214510       1.06836902      -0.54891252
H       -3.16114510       0.52336902      -1.44891252
H       -3.33204510       1.42321902       0.09342228
H       -3.61555510      -0.36023098       0.01108578
