24
Properties=species:S:1:pos:R:3 pbc="F F F"
C        0.46351405      -1.44218779       0.02053340
C        0.54451405      -1.73418779      -1.47146660
C        1.21451405       0.50081221       1.35153340
N        1.42451405      -0.40718779       0.41353340
N        0.07251405       0.52181221       2.01453340
N        2.13851405       1.40281221       1.61253340
H       -0.56248595      -1.15518779       0.25253340
H        0.69651405      -2.35818779       0.56953340
H        1.58551405      -1.93418779      -1.73146660
H        0.20851405      -0.85818779      -2.02346660
H        2.36751405      -0.45118779       0.02053340
H       -0.61748595      -0.19018779       1.85353340
H       -0.08648595       1.21281221       2.73153340
H        2.99151405       1.40881221       1.04653340
H        2.00451405       2.09481221       2.33053340
H       -0.07086595      -2.60508079      -1.74136660
C       -2.53248595       0.05681221      -1.46346660
C       -3.20648595       0.98781221      -2.44546660
H       -2.18248595      -0.82118779      -2.00146660
H       -1.69048595       0.56781221      -0.99646660
H       -3.24048595      -0.25218779      -0.69146660
H       -2.41048595       1.35781221      -3.07546660
H       -4.00302595       0.44533201      -2.97577660
H       -3.60804595       1.88588121      -1.95330660
