18
Properties=species:S:1:pos:R:3 pbc="F F F"
C        1.39183606      -1.36176578       0.69398892
C        2.08083606      -1.77676578       1.98298892
N       -0.05316394      -1.39776578       0.96898892
H        1.70083606      -0.34676578       0.42598892
H        1.65583606      -2.04676578      -0.11801108
H        1.86583606      -2.82676578       2.19398892
H        1.67383606      -1.18476578       2.80698892
H       -0.29316394      -0.80076578       1.74898892
H       -0.55516394      -1.01376578       0.16298892
H       -0.39116394      -2.33576578       1.14698892
H        3.16891606      -1.61529478       1.98594892
C       -1.16516394       2.31923422      -1.75801108
C       -0.82416394       1.11323422      -0.90601108
O       -0.13616394       1.29523422       0.12098892
O       -1.24416394      -0.01876578      -1.25801108
H       -2.14016394       2.70423422      -1.44901108
H       -1.27616394       1.98623422      -2.79101108
H       -0.43713394       3.14071322      -1.68629108
