30
Properties=species:S:1:pos:R:3 pbc="F F F"
C       -3.13953208       2.39833684       1.20390057
C        0.17346792       1.25833684      -0.28609943
C       -0.98253208       1.29633684       0.48490057
C        0.39746792       2.23333684      -1.24809943
C       -1.92353208       2.31733684       0.31190057
C       -0.50053208       3.26433684      -1.38809943
C       -1.65553208       3.30533684      -0.62809943
H        0.90546792       0.49533684      -0.12909943
H       -1.14453208       0.53233684       1.23390057
H        1.29346792       2.20833684      -1.85409943
H       -0.30653208       4.02933684      -2.12209943
H       -3.49353208       1.38633684       1.39890057
H       -3.93853208       2.93933684       0.69290057
H       -2.33453208       4.13733684      -0.74409943
H       -2.92016208       2.87924684       2.16858057
C        0.67246792      -2.20166316      -1.55709943
C        1.24046792      -3.44666316      -2.22209943
C        0.96346792      -2.08766316      -0.09209943
C        2.07746792      -1.61866316       0.50390057
C        0.61546792      -2.04666316       2.07690057
N        0.04146792      -2.33066316       0.90490057
N        1.85746792      -1.63266316       1.86390057
H        1.05146792      -1.30666316      -2.04809943
H       -0.40753208      -2.18366316      -1.65109943
H        2.32046792      -3.47666316      -2.07209943
H        2.77246792      -1.06566316      -0.07909943
H        0.13546792      -2.12366316       3.04590057
H        2.46646792      -1.29066316       2.60390057
H        0.99033792      -3.41050316      -3.29266943
H        0.78523792      -4.34693316      -1.78359943
