23
Properties=species:S:1:pos:R:3 pbc="F F F"
C       -0.13720420       0.25601725       4.72640716
C        0.44479580      -0.13198275       3.40740716
O       -0.30920420      -0.34198275       2.44740716
O        1.69279580      -0.13598275       3.35040716
H        0.05579580       1.31901725       4.88540716
H        0.34679580      -0.30098275       5.53040716
H       -1.22092420       0.07159725       4.76556716
C       -0.91520420       1.54301725      -4.28559284
C       -0.47420420       0.64901725      -0.67259284
C        0.10579580      -0.63498275      -0.77659284
C       -0.80220420       1.34101725      -1.81859284
C       -0.56720420       0.78301725      -3.05259284
C        0.30979580      -1.20098275      -2.00859284
C       -0.02820420      -0.48198275      -3.14859284
O        0.42879580      -1.38598275       0.31940716
H       -0.65520420       1.07301725       0.30240716
H       -1.23820420       2.32801725      -1.73859284
H        0.72979580      -2.19298275      -2.10059284
H        0.71879580      -2.26998275       0.08440716
H       -1.56720420       2.37801725      -4.02459284
H       -1.46120420       0.89001725      -4.96759284
H        0.13679580      -0.92298275      -4.12359284
H       -0.01947420       1.92496725      -4.79723584
