17
Properties=species:S:1:pos:R:3 pbc="F F F"
C        0.38056137       1.88706975      -1.70090004
C        0.58156137       3.08506975      -2.62490004
H        1.17356137       1.15806975      -1.87190004
H        0.41556137       2.22206975      -0.66490004
H       -0.59043863       1.42706975      -1.88290004
H       -0.25243863       3.77106975      -2.51490004
H        0.67577137       2.76145075      -3.67199004
H        1.49632137       3.62034675      -2.33046004
C       -0.50143863      -0.38193025       2.20209996
C       -0.25143863      -1.34093025       1.08109996
O       -0.64843863      -2.49893025       1.16209996
N        0.38056137      -0.87293025       0.01509996
H        0.54756137      -1.50093025      -0.75690004
H        0.68856137       0.08406975      -0.01290004
H        0.11756137       0.50906975       2.08309996
H       -0.19743863      -0.87193025       3.12809996
H       -1.56406863      -0.10453325       2.26422996
