20
Properties=species:S:1:pos:R:3 pbc="F F F"
C       -0.18378210      -1.33297558      -1.43919863
C        0.90321790      -2.33897558      -1.86719863
C       -1.13378210      -0.92397558      -2.56519863
H       -0.75878210      -1.77297558      -0.62419863
H        0.29521790      -0.43597558      -1.05819863
H        1.60421790      -2.47897558      -1.05219863
H       -0.53578210      -0.49397558      -3.36919863
H       -1.61778210      -1.82197558      -2.95219863
H        1.47567690      -1.97215058      -2.73190863
H        0.46437590      -3.31731718      -2.11268863
H       -1.90377010      -0.20063158      -2.25877863
C        0.88021790       1.18502442       2.68980137
C        0.10521790       1.17202442       1.39580137
O        0.55421790       1.72202442       0.38880137
N       -1.06078210       0.54402442       1.39880137
H        0.37821790       0.56402442       3.43280137
H        0.90121790       2.20602442       3.07280137
H       -1.58278210       0.47302442       0.52280137
H       -1.49278210       0.20902442       2.24980137
H        1.91173090       0.82793442       2.55390137
