38
Properties=species:S:1:pos:R:3 pbc="F F F"
C        0.43843404      -1.03696031       2.33191984
C        0.09043404      -1.59896031       3.70491984
C        0.22443404       0.44303969       2.10891984
C       -1.06056596       0.98403969       2.07691984
C        1.30743404       1.28203969       1.86791984
C       -1.25956596       2.34403969       1.83991984
C        1.12043404       2.64003969       1.63591984
C       -0.16156596       3.17203969       1.61891984
O       -0.33456596       4.50503969       1.38691984
H        1.46343404      -1.30296031       2.09191984
H       -0.20756596      -1.53996031       1.62991984
H       -0.93456596      -1.32996031       3.94291984
H       -1.89456596       0.35003969       2.30691984
H        2.30543404       0.87703969       1.87691984
H       -2.25956596       2.75303969       1.83891984
H        1.96043404       3.29703969       1.49291984
H       -1.25956596       4.76003969       1.45191984
H        0.76525404      -1.18774031       4.47011384
H        0.13299404      -2.69467031       3.61763884
C       -0.50156596      -3.37996031      -0.53508016
C       -1.99856596      -3.67496031      -0.41408016
C       -0.13456596      -2.22796031      -1.45008016
C       -0.34856596      -0.90896031      -1.06108016
C        0.45843404      -2.46796031      -2.69208016
C        0.01843404       0.15103969      -1.88108016
C        0.82243404      -1.40896031      -3.52608016
C        0.60043404      -0.09696031      -3.11808016
O        0.95243404       0.94703969      -3.92008016
H       -0.05356596      -3.24796031       0.44291984
H       -0.00156596      -4.26196031      -0.94108016
H       -2.47756596      -3.27096031      -1.30608016
H       -0.86656596      -0.68596031      -0.14408016
H        0.63743404      -3.48496031      -3.01808016
H       -0.15656596       1.16803969      -1.56008016
H        1.27843404      -1.59796031      -4.48708016
H        0.92743404       1.78203969      -3.42208016
H       -2.43546596      -3.21779031       0.48598684
H       -2.15426596      -4.76344031      -0.44522016
