23
Properties=species:S:1:pos:R:3 pbc="F F F"
C        2.14600959       0.10754953       1.90074248
C        3.22600959      -0.66445047       1.15574248
H        2.50300959       0.44554953       2.87074248
H        1.90200959       0.99454953       1.32874248
H        1.25600959      -0.50645047       2.03974248
H        3.99200959       0.03354953       0.82074248
H        3.69352459      -1.40498247       1.82135248
H        2.80737859      -1.16882547       0.27236248
C       -0.70999041      -1.77445047      -2.08425752
C       -1.00699041       1.49754953       0.70574248
C       -1.92499041       0.45554953       0.74874248
C        0.00900959       1.48554953      -0.24225752
C       -1.82699041      -0.59645047      -0.16325752
C        0.10900959       0.42554953      -1.14725752
C       -0.80799041      -0.62445047      -1.11025752
H       -1.08599041       2.31854953       1.40674248
H       -2.71999041       0.46354953       1.48374248
H        0.71400959       2.30454953      -0.28925752
H       -2.54899041      -1.40045047      -0.12325752
H        0.88900959       0.44054953      -1.89525752
H       -1.21399041      -2.64345047      -1.65625752
H        0.34000959      -2.03245047      -2.19525752
H       -1.15140141      -1.56128147      -3.06899752
