29
Properties=species:S:1:pos:R:3 pbc="F F F"
C       -2.35082521       2.12113424      -0.93671079
C       -0.14182521       1.30013424      -0.01071079
C       -1.47882521       1.66313424       0.20228921
C        0.65017479       0.85913424       1.05828921
C        0.11317479       0.78913424       2.34028921
C       -2.00682521       1.58113424       1.49328921
C       -1.21182521       1.15213424       2.55828921
H        0.28417479       1.36813424      -1.00171079
H        1.67617479       0.57313424       0.88328921
H       -1.77382521       2.81113424      -1.55471079
H       -3.20682521       2.67113424      -0.54171079
H        0.72417479       0.44613424       3.16528921
H       -3.03782521       1.85113424       1.67528921
H       -1.63482521       1.09013424       3.55128921
H       -2.71226351       1.29199424      -1.56272079
C        1.37017479      -2.04486576      -1.13471079
C        1.90017479      -3.47886576      -0.94771079
C        2.47917479      -1.08386576      -1.59171079
C        0.22017479      -2.04486576      -2.14371079
H        0.99317479      -1.68186576      -0.17971079
H        2.13817479      -3.88086576      -1.93171079
H        2.93217479      -1.43986576      -2.51871079
H        2.05817479      -0.09386576      -1.76171079
H        3.24517479      -0.97886576      -0.82171079
H       -0.59682521      -2.67286576      -1.78671079
H       -0.15882521      -1.03186576      -2.26471079
H        0.56717479      -2.42386576      -3.10671079
H        1.13249779      -4.10894576      -0.47477079
H        2.81652779      -3.48318576      -0.33921079
