19
Properties=species:S:1:pos:R:3 pbc="F F F"
C        1.03100037       0.15867944      -1.76845681
C        2.52600037       0.30667944      -1.47945681
H        0.46100037       0.60767944      -0.96545681
H        0.77300037       0.67967944      -2.68645681
H        0.76600037      -0.89432056      -1.86945681
H        3.06800037      -0.11332056      -2.32445681
H        2.80539337      -0.23127656      -0.56155681
H        2.78293037       1.37141544      -1.37784581
C       -1.64099963      -0.24332056       0.74954319
C       -0.85599963      -1.37932056       1.42154319
C       -1.17099963       1.13867944       1.14154319
H       -1.51899963      -0.33132056      -0.33045681
H       -2.70999963      -0.33432056       0.94254319
H        0.20900037      -1.14932056       1.36754319
H       -0.08799963       1.22467944       1.05154319
H       -1.64399963       1.87467944       0.49054319
H       -1.43499963       1.33767944       2.16154319
H       -1.13911463      -1.51064056       2.47634319
H       -1.00759463      -2.30962756       0.85449319
