26
Properties=species:S:1:pos:R:3 pbc="F F F"
C       -0.09862786      -2.19999144      -1.03730020
C       -1.50062786      -2.28899144      -1.69030020
C        0.40737214      -3.59899144      -0.68030020
C        0.89837214      -1.52199144      -1.97430020
H       -0.15662786      -1.63099144      -0.11830020
H       -1.39662786      -2.86499144      -2.61130020
H        0.40337214      -4.24199144      -1.56430020
H        1.43237214      -3.53099144      -0.31030020
H       -0.18962786      -4.05799144       0.10769980
H        0.60537214      -0.48999144      -2.16430020
H        1.88837214      -1.51199144      -1.51530020
H        0.95237214      -2.06199144      -2.92130020
H       -1.92124786      -1.29747144      -1.91383020
H       -2.16650786      -2.85065144      -1.01863020
C       -0.13562786       0.87200856       0.84369980
C       -1.23362786       0.61300856       1.88669980
C        0.35337214       2.30900856       0.86169980
O       -0.42662786       3.24300856       0.72369980
N        1.65037214       2.49700856       1.03869980
H        0.70937214       0.21400856       1.05569980
H       -0.49462786       0.65400856      -0.16130020
H       -0.93262786       1.05700856       2.83669980
H        2.00637214       3.44200856       1.02269980
H        2.28437214       1.71400856       1.09969980
H       -1.39335786      -0.46780144       2.01447980
H       -2.19024786       1.05553856       1.57196980
