26
Properties=species:S:1:pos:R:3 pbc="F F F"
C        0.69698769      -1.30447642      -0.77669250
C        0.32498769      -2.45447642      -1.73169250
C       -0.49501231      -0.57947642      -0.18369250
C       -1.31401231      -1.21747642       0.74930750
C       -0.79901231       0.73252358      -0.52569250
C       -2.41901231      -0.57347642       1.35930750
C       -1.91601231       1.38552358       0.09730750
C       -2.71601231       0.74052358       1.03230750
H        1.29098769      -1.67947642       0.05830750
H        1.28398769      -0.56847642      -1.32669250
H       -0.21301231      -3.22147642      -1.16869250
H       -1.07201231      -2.23947642       0.99930750
H       -0.18701231       1.24452358      -1.25969250
H       -3.03501231      -1.08747642       2.08230750
H       -2.17801231       2.38452358      -0.13369250
H       -3.55101231       1.25352358       1.49130750
H        1.24789769      -2.87237642      -2.16013250
H       -0.31824231      -2.06597642      -2.53501250
C        2.98798769       1.48152358      -0.19969250
C        4.35798769       1.72652358       0.44830750
H        2.58998769       2.41852358      -0.58569250
H        3.09398769       0.77252358      -1.01969250
H        2.30098769       1.07252358       0.53930750
H        5.04298769       2.11852358      -0.30069250
H        4.75298769       0.78352358       0.82330750
H        4.33510769       2.43442358       1.28993750
