19
Properties=species:S:1:pos:R:3 pbc="F F F"
C        1.73229227       1.21668921       0.57448845
C        2.86429227       0.65768921      -0.26251155
H        1.04129227       0.42768921       0.84048845
H        2.15529227       1.62468921       1.49448845
H        1.19929227       2.01768921       0.07048845
H        3.64029227       1.42068921      -0.31451155
H        2.57698227       0.39407921      -1.29108155
H        3.29596227      -0.22298079       0.23556845
C       -1.77770773      -0.28531079       0.33448845
C       -2.09570773      -0.12531079      -1.14451155
C       -0.85470773      -1.47631079       0.52348845
H       -1.27670773       0.59968921       0.72248845
H       -2.70270773      -0.43931079       0.89148845
H       -2.68270773      -0.98631079      -1.46951155
H       -1.15170773      -0.15131079      -1.69451155
H       -1.36170773      -2.35731079       0.13048845
H        0.05229227      -1.31331079      -0.05951155
H       -2.63237773       0.78996921      -1.43476155
H       -0.58611773      -1.65437079       1.57522845
