27
Properties=species:S:1:pos:R:3 pbc="F F F"
C        1.30115251       2.07491005      -2.19840042
C        1.35315251       2.42091005      -3.70140042
C        2.02715251       3.04691005      -1.27040042
H        0.26015251       2.00591005      -1.88040042
H        1.73115251       1.09291005      -2.02840042
H        2.37015251       2.69391005      -3.98940042
H        1.51915251       4.01091005      -1.24940042
H        2.04315251       2.63491005      -0.26140042
H        3.05315251       3.18491005      -1.60940042
H        1.02449251       1.54757205      -4.28386042
H        0.67924251       3.27266205      -3.87564042
C        1.89915251      -0.21208995       2.20959958
C        0.50815251      -0.81908995       0.17259958
C        0.59915251      -0.62608995       1.55159958
C       -0.69484749      -1.21008995      -0.42940042
C       -0.53284749      -0.84508995       2.32959958
C       -1.81184749      -1.42308995       0.37659958
C       -1.73284749      -1.24508995       1.75759958
O       -3.01884749      -1.77108995      -0.11740042
H        1.38015251      -0.65408995      -0.44640042
H       -0.77584749      -1.33108995      -1.49740042
H        1.65515251       0.57391005       2.92159958
H        2.56415251       0.22591005       1.46359958
H       -0.48184749      -0.70208995       3.39959958
H       -2.58984749      -1.42908995       2.37559958
H       -3.67484749      -1.83908995       0.57559958
H        2.41705251      -1.02449495       2.74042958
