18
Properties=species:S:1:pos:R:3 pbc="F F F"
C        1.13234059       2.26474062       1.12164932
C        0.01034059       1.57974062       0.34364932
O       -1.17165941       1.71774062       0.72964932
O        0.30934059       0.90874062      -0.66935068
H        1.15534059       3.32774062       0.87164932
H        2.09234059       1.83074062       0.82964932
H        1.01043059       2.15582062       2.20942932
C       -0.26065941      -2.21025938       0.06764932
C        1.11934059      -2.60825938      -0.44235068
N       -1.02765941      -1.49525938      -0.98835068
H       -0.79365941      -3.11625938       0.37864932
H       -0.14765941      -1.56225938       0.94364932
H        1.64834059      -1.71125938      -0.77635068
H        1.00434059      -3.28225938      -1.29535068
H       -0.94365941      -1.91525938      -1.91135068
H       -2.00065941      -1.36925938      -0.73035068
H       -0.62265941      -0.55325938      -1.07235068
H        1.71685059      -3.10786938       0.33441932
