19
Properties=species:S:1:pos:R:3 pbc="F F F"
C       -1.03908857      -0.71729391       0.47502301
C       -1.40208857      -2.00129391      -0.27197699
C       -0.71308857      -0.92829391       1.94402301
H       -0.17708857      -0.26329391      -0.00797699
H       -1.86208857      -0.00429391       0.39602301
H       -2.17508857      -2.53929391       0.27902301
H        0.06691143      -1.68129391       2.05902301
H       -0.34308857       0.01570609       2.34102301
H       -0.50135857      -2.61861391      -0.40463699
H       -1.85417857      -1.74223391      -1.24073699
H       -1.61999857      -1.22217391       2.49279301
C        1.49891143       2.08470609      -0.34997699
C        1.59091143       1.50170609      -1.76397699
H        2.35091143       2.73670609      -0.15897699
H        0.57991143       2.65970609      -0.23897699
H        1.47591143       1.30270609       0.40602301
H        0.73091143       0.85370609      -1.93897699
H        2.51174143       0.90974609      -1.87192699
H        1.58447143       2.31345609      -2.50628699
