31
Properties=species:S:1:pos:R:3 pbc="F F F"
C        2.22908026      -2.55885332       0.91029000
C        1.50208026      -0.44185332       2.08229000
C        2.18408026      -1.05385332       1.03229000
C        1.45908026       0.96314668       2.18029000
C        2.84508026      -0.24485332       0.09729000
C        2.13308026       1.74514668       1.23529000
C        2.82808026       1.14114668       0.19629000
O        2.10908026       3.11114668       1.31429000
H        1.04808026      -1.05385332       2.83529000
H        0.93008026       1.44114668       2.99129000
H        2.31908026      -2.80985332      -0.14571000
H        1.28508026      -2.98285332       1.25029000
H        3.36908026      -0.70485332      -0.72971000
H        3.34408026       1.74014668      -0.53971000
H        2.66608026       3.51614668       0.64629000
H        3.06366026      -3.02807932       1.45187000
C       -3.86391974       0.12914668      -3.30571000
C       -1.51891974      -0.87385332       0.16929000
C       -1.16291974       0.21614668      -0.63271000
C       -2.65491974      -1.63385332      -0.14771000
C       -1.94091974       0.53914668      -1.74271000
C       -3.42791974      -1.29885332      -1.25871000
C       -3.06691974      -0.21585332      -2.07171000
H       -0.92191974      -1.13185332       1.03029000
H       -0.28491974       0.80014668      -0.39371000
H       -2.93191974      -2.47485332       0.47129000
H       -1.65491974       1.37514668      -2.36471000
H       -4.29891974      -1.89085332      -1.49871000
H       -4.31091974      -0.78885332      -3.68671000
H       -3.17991974       0.48914668      -4.07271000
H       -4.65373174       0.87663468      -3.14000000
