16
Properties=species:S:1:pos:R:3 pbc="F F F"
C       -0.10410273       1.85051168      -0.03249486
C        0.39289727       3.02751168       0.79550514
H       -1.12810273       2.01651168      -0.36249486
H        0.52689727       1.74851168      -0.91449486
H       -0.04710273       0.92651168       0.53850514
H        0.36089727       3.92851168       0.18250514
H        1.44189727       2.84851168       1.03850514
H       -0.15545073       3.18950768       1.73522414
C        0.37789727      -1.93548832      -0.15949486
C       -0.67410273      -2.94648832      -0.59849486
H        1.37789727      -2.33148832      -0.33749486
H        0.25689727      -1.01448832      -0.72849486
H        0.26089727      -1.71648832       0.90250514
H       -1.66010273      -2.53348832      -0.38149486
H       -0.54674273      -3.89196832      -0.05091986
H       -0.59957573      -3.12303832      -1.68167386
