16
Properties=species:S:1:pos:R:3 pbc="F F F"
C       -1.47281578       0.97084534      -0.45357321
C       -2.07581578       2.12084534      -1.23657321
H       -2.15181578       0.11984534      -0.43157321
H       -0.53581578       0.67284534      -0.92457321
H       -1.26681578       1.28184534       0.57042679
H       -2.20181578       1.82084534      -2.27857321
H       -1.35181578       2.93484534      -1.21657321
H       -3.04309578       2.45448534      -0.83276621
C        1.30018422      -0.95315466       0.77842679
C        2.24018422      -2.14315466       0.91242679
H        0.33618422      -1.27315466       0.38142679
H        1.15018422      -0.49115466       1.75442679
H        1.73618422      -0.21315466       0.10442679
H        3.18318422      -1.79415466       1.33842679
H        2.43701422      -2.57828466      -0.07849221
H        1.80688422      -2.87977466       1.60499079
