15
Properties=species:S:1:pos:R:3 pbc="F F F"
C        1.10089791      -0.65025765      -3.00747045
N        0.33689791       0.43674235      -2.28747045
H        0.36089791       0.32374235      -1.27147045
H        0.74689791       1.34374235      -2.47647045
H       -0.63010209       0.47674235      -2.58347045
H        2.11989791      -0.72425765      -2.61547045
H        1.14089791      -0.46525765      -4.08647045
H        0.54417791      -1.57787765      -2.80848645
C       -1.83010209      -0.21625765       1.42152955
C       -0.29410209       0.06174235       1.43552955
O        0.20489791       0.61074235       0.42152955
O        0.41589791      -0.29925765       2.42652955
H       -2.09910209      -0.73225765       0.49952955
H       -2.35110209       0.74274235       1.43552955
H       -2.17384209      -0.81069765       2.28087855
