16
Properties=species:S:1:pos:R:3 pbc="F F F"
C       -0.26857269      -0.28079171       1.58314067
C       -0.51157269      -1.44479171       2.59814067
H        0.04142731       0.62120829       2.11214067
H        0.51142731      -0.55979171       0.87114067
H       -1.18957269      -0.06979171       1.03314067
H        0.40542731      -1.69579171       3.13514067
H       -1.29366969      -1.17063171       3.32144067
H       -0.84207169      -2.31754171       2.01583067
C        0.80742731       1.39220829      -1.72485933
C       -0.02457269       0.33820829      -2.45285933
H        0.16342731       2.20220829      -1.38785933
H        1.29342731       0.94120829      -0.86085933
H        1.56542731       1.78820829      -2.40085933
H       -0.77557269      -0.05979171      -1.76985933
H        0.63142731      -0.46979171      -2.77285933
H       -0.54338669       0.73270829      -3.33898933
