17
Properties=species:S:1:pos:R:3 pbc="F F F"
C        1.42217857       0.25879908      -2.29244667
C        2.77817857       0.15879908      -1.60844667
H        1.54517857       0.59579908      -3.32244667
H        0.94517857      -0.72120092      -2.30644667
H        0.78117857       0.95679908      -1.75544667
H        2.62917857      -0.05320092      -0.55044667
H        3.33783957       1.09753908      -1.73313467
H        3.36205457      -0.67034792      -2.03459667
C       -0.64582143       0.09879908       2.36455333
C       -1.12882143      -0.08120092       0.94255333
O       -2.18582143       0.42079908       0.55955333
N       -0.36282143      -0.80620092       0.14755333
H       -0.68382143      -1.00120092      -0.78744667
H        0.48117857      -1.22720092       0.50355333
H        0.44417857       0.15279908       2.37755333
H       -0.94882143      -0.79220092       2.91555333
H       -1.06222883       1.00065908       2.83705333
