20
Properties=species:S:1:pos:R:3 pbc="F F F"
C       -2.51386426       1.36643883      -0.61600746
C       -3.43486426       2.57643883      -0.55900746
H       -1.51586426       1.64043883      -0.27500746
H       -2.90686426       0.57843883       0.02599254
H       -2.45086426       0.98443883      -1.63500746
H       -4.41386426       2.28443883      -0.93100746
H       -3.04852226       3.40921883      -1.16499146
H       -3.52056526       2.90534883       0.48716454
C        0.12513574      -0.88856117       0.75199254
C        0.63713574      -1.89656117       1.76999254
C        2.61113574       0.18143883       0.06099254
S        1.20713574      -0.66956117      -0.68100746
H       -0.85386426      -1.21256117       0.39899254
H       -0.00386426       0.07543883       1.24599254
H       -0.07886426      -1.96056117       2.59099254
H        1.58113574      -1.53156117       2.17299254
H        3.06613574      -0.44456117       0.82899254
H        3.35413574       0.38643883      -0.71100746
H        2.28313574       1.12443883       0.49599254
H        0.80166174      -2.90103117       1.35290454
