26
Properties=species:S:1:pos:R:3 pbc="F F F"
C       -2.94222308      -0.30799545       2.20779307
C       -1.09222308      -0.88299545       0.55579307
C        0.18977692       0.93900455       0.52979307
C       -1.70322308      -0.03699545       1.42079307
C       -0.88822308       1.15000455       1.42679307
C        1.15177692       1.89600455       0.28479307
C        1.02377692       3.11100455       0.93179307
C       -0.96522308       2.37500455       2.09379307
C       -0.02422308       3.33900455       1.82679307
N        0.03277692      -0.31699545       0.02879307
H        0.58077692      -0.75499545      -0.71720693
H       -1.45422308      -1.87199545       0.30279307
H        1.96377692       1.70300455      -0.40120693
H       -2.78322308       0.04400455       3.21479307
H       -3.07422308      -1.38999545       2.27379307
H        1.75777692       3.88700455       0.75979307
H       -1.74422308       2.55800455       2.81579307
H       -0.07422308       4.27300455       2.35879307
H       -3.86817608       0.12107055       1.79729307
C        1.42077692      -3.67999545      -3.22020693
C        1.20577692      -2.35199545      -2.48120693
O        0.04477692      -1.92299545      -2.40320693
O        2.16877692      -1.74499545      -1.94920693
H        0.45377692      -4.11299545      -3.47720693
H        1.89777692      -4.40199545      -2.55820693
H        2.01558692      -3.56335245      -4.13813693
