16
Properties=species:S:1:pos:R:3 pbc="F F F"
C       -0.08900266       0.87481759      -1.18686294
C       -0.21400266       1.55481759      -2.56086294
H       -0.63200266      -0.06918241      -1.16886294
H        0.95999734       0.65781759      -0.98786294
H       -0.46200266       1.53381759      -0.40186294
H       -0.03500266       0.81981759      -3.34286294
H        0.57499734       2.30281759      -2.62186294
H       -1.18733266       2.04578159      -2.70779294
C       -0.25700266      -0.58518241       2.05813706
C        0.55099734      -1.84918241       1.69413706
H       -0.62600266      -0.65618241       3.08313706
H        0.36499734       0.30481759       1.96913706
H       -1.10200266      -0.44818241       1.38213706
H        0.83699734      -1.76518241       0.64313706
H       -0.05591266      -2.75990941       1.80474706
H        1.47063734      -1.90987341       2.29461706
