16
Properties=species:S:1:pos:R:3 pbc="F F F"
C        1.45800572      -0.87533459       0.29996121
C        1.87500572      -2.31433459       0.01896121
H        1.46900572      -0.29133459      -0.62203879
H        0.45100572      -0.85733459       0.72096121
H        2.14400572      -0.42533459       1.01896121
H        1.87300572      -2.85733459       0.96496121
H        2.89114572      -2.34450459      -0.40122279
H        1.14989572      -2.79798459      -0.65208779
C       -1.02099428       1.98266541      -0.06903879
C       -2.31399428       1.20966541      -0.26303879
H       -1.16999428       3.03766541      -0.29403879
H       -0.69999428       1.89266541       0.96996121
H       -0.24199428       1.57866541      -0.71603879
H       -3.09499428       1.66266541       0.34896121
H       -2.10899428       0.21666541       0.13096121
H       -2.63853428       1.15378541      -1.31258779
