16
Properties=species:S:1:pos:R:3 pbc="F F F"
C        2.03542975      -1.52011206       0.76089931
C        1.81842975      -0.16811206       1.42689931
O        0.65542975       0.28188794       1.51689931
O        2.81442975       0.45788794       1.85189931
H        2.73042975      -1.37511206      -0.06710069
H        1.09642975      -1.89211206       0.34689931
H        2.45814975      -2.26149506       1.45491331
C       -3.14657025       0.17088794      -1.99710069
C       -1.75657025       0.20588794      -1.39810069
O       -0.84757025      -0.49911206      -1.83710069
N       -1.57257025       1.03488794      -0.39010069
H       -0.72357025       0.88688794       0.14789931
H       -2.37557025       1.52088794      -0.00110069
H       -3.32557025       1.16288794      -2.40810069
H       -3.87057025      -0.01611206      -1.20210069
H       -3.25570025      -0.59949406      -2.77466269
