16
Properties=species:S:1:pos:R:3 pbc="F F F"
C        1.33772291       0.29451367      -1.35542883
C        1.32372291       1.07451367      -2.67242883
H        0.43272291      -0.29548633      -1.24142883
H        2.19272291      -0.38248633      -1.34142883
H        1.42072291       0.98351367      -0.51442883
H        1.24272291       0.35551367      -3.48742883
H        0.46129491       1.75635367      -2.70868883
H        2.26889291       1.62239367      -2.80079383
C       -0.91027709      -0.66348633       1.38757117
C       -1.75427709      -0.70448633       2.64457117
H       -0.36127709      -1.59848633       1.26957117
H       -1.54327709      -0.51748633       0.51657117
H       -0.20427709       0.16451367       1.44557117
H       -2.27727709       0.24651367       2.73357117
H       -1.09554509      -0.83881933       3.51522117
H       -2.50038809      -1.50860433       2.56263717
