35
Properties=species:S:1:pos:R:3 pbc="F F F"
C        3.27672741      -2.47433849       2.26027968
C        2.03972741      -1.39333849      -1.21072032
C        2.30072741      -0.01033849      -1.17772032
C        2.38872741      -2.19933849      -0.10672032
C        2.98972741      -1.63933849       1.03527968
C        2.92472741       0.53866151      -0.05172032
C        3.26072741      -0.26633849       1.03827968
O        1.90972741       0.82466151      -2.19772032
H        1.56172741      -1.82633849      -2.07772032
H        2.16872741      -3.25833849      -0.13172032
H        3.21472741       1.57366151      -0.04872032
H        1.83372741       1.71966151      -1.87572032
H        4.25072741      -2.18633849       2.65927968
H        3.35972741      -3.51433849       1.94027968
H        3.74472741       0.17866151       1.89927968
H        2.52942741      -2.41652849       3.06538968
C       -1.60827259      -1.62333849      -0.69072032
C       -1.16227259      -2.48033849       0.50527968
C       -2.05927259      -0.20933849      -0.31872032
C       -3.38627259       0.19166151      -0.50972032
C       -1.14827259       0.72966151       0.20227968
C       -3.79727259       1.48666151      -0.19672032
C       -1.54927259       2.03266151       0.51427968
C       -2.87427259       2.41166151       0.31527968
O       -3.24827259       3.68366151       0.63527968
H       -0.78227259      -1.54533849      -1.39672032
H       -2.42427259      -2.13233849      -1.20372032
H       -0.27227259      -2.02333849       0.94227968
H       -4.10527259      -0.50933849      -0.91472032
H       -0.11927259       0.43566151       0.36927968
H       -4.82527259       1.78066151      -0.35972032
H       -0.85027259       2.74566151       0.92427968
H       -4.16327259       3.86466151       0.38827968
H       -0.92565259      -3.51064049       0.20115968
H       -1.96662259      -2.48465849       1.25561968
