20
Properties=species:S:1:pos:R:3 pbc="F F F"
C       -3.34837226      -0.26347670      -0.79090058
C       -2.33137226      -1.33347670      -0.39590058
O       -1.12437226      -1.11147670      -0.62690058
O       -2.73937226      -2.40047670       0.12609942
H       -4.16037226      -0.26047670      -0.06390058
H       -3.75237226      -0.50647670      -1.77690058
H       -2.93162226       0.75382330      -0.82866058
C        1.51862774       1.39452330      -1.56890058
C        1.99462774       0.92952330       0.80509942
N        0.91662774       0.18452330       0.92409942
N        2.31262774       1.49352330      -0.34690058
N        2.78962774       1.11452330       1.83209942
H        0.31962774       0.02052330       0.11909942
H        0.68962774      -0.23847670       1.81209942
H        3.16362774       2.05352330      -0.39190058
H        3.63362774       1.67652330       1.71709942
H        2.56862774       0.69452330       2.72609942
H        0.60862774       0.83452330      -1.34990058
H        2.09462774       0.84352330      -2.31590058
H        1.26919774       2.40138330      -1.93497058
