17
Properties=species:S:1:pos:R:3 pbc="F F F"
C        0.48686721       0.21402680       2.36690243
C        2.11586721      -1.09397320       0.30590243
S        0.66086721      -0.09397320       0.60390243
H        1.46186721       0.47402680       2.78190243
H        0.15386721      -0.70997320       2.84190243
H        1.95286721      -2.08297320       0.73390243
H        2.25786721      -1.15297320      -0.77109757
H        2.98686721      -0.62697320       0.76690243
H       -0.23159279       1.01295680       2.60255243
C       -1.73713279       0.55702680      -1.31309757
C       -2.32813279       0.54702680      -2.71009757
H       -0.66313279       0.65302680      -1.43509757
H       -2.12313279       1.41602680      -0.76609757
H       -1.99013279      -0.34697320      -0.75909757
H       -3.41413279       0.60602680      -2.63909757
H       -2.03656279      -0.36589320      -3.25006757
H       -1.94685279       1.44217680      -3.22324757
