19
Properties=species:S:1:pos:R:3 pbc="F F F"
C        3.10241083       0.45466416       0.15097819
C        2.48641083       1.68166416      -0.51602181
O        1.24041083       1.73666416      -0.59902181
O        3.23341083       2.57866416      -0.96802181
H        2.94041083      -0.40533584      -0.50202181
H        2.58641083       0.25166416       1.08997819
H        4.18432083       0.53629416       0.33212819
C       -2.62958917      -2.78433584       1.60597819
C       -1.90058917      -0.19733584      -0.84302181
C       -0.86058917      -1.01333584       0.91697819
C       -2.03158917      -1.68833584       0.76997819
N       -0.80458917      -0.08633584      -0.10102181
N       -2.66458917      -1.16233584      -0.33902181
H       -0.06158917       0.60366416      -0.25802181
H       -2.13458917       0.40966416      -1.71102181
H       -0.11858917      -1.17233584       1.68897819
H       -3.62458917      -2.47133584       1.92697819
H       -2.01558917      -2.87833584       2.49097819
H       -2.70986917      -3.75052584       1.08632819
