23
Properties=species:S:1:pos:R:3 pbc="F F F"
C        2.51939932      -2.34642384      -3.31819782
C       -0.00860068       0.33557616      -1.06319782
C        0.20839932       0.54057616      -2.43319782
C        0.56439932      -0.76942384      -0.42219782
C        1.00039932      -0.34842384      -3.16019782
C        1.35739932      -1.66142384      -1.16319782
C        1.58339932      -1.45142384      -2.53619782
O       -0.80160068       1.22457616      -0.38619782
H       -1.14560068       1.92757616      -0.93419782
H       -0.23060068       1.39557616      -2.92319782
H        0.39539932      -0.92942384       0.63380218
H        1.17039932      -0.18342384      -4.21519782
H        1.80639932      -2.51642384      -0.67219782
H        2.82939932      -3.17842384      -2.68819782
H        3.40539932      -1.77042384      -3.60319782
H        2.04090932      -2.81130384      -4.19279782
C       -0.42960068       1.94557616       3.69480218
C       -1.48060068       0.90257616       3.27680218
O       -1.58960068       0.65557616       2.06880218
O       -2.21660068       0.35357616       4.12280218
H       -0.66660068       2.90057616       3.21680218
H        0.55339932       1.61657616       3.34880218
H       -0.35033068       2.08853616       4.78259218
