34
Properties=species:S:1:pos:R:3 pbc="F F F"
C       -5.41273796      -1.66920487       1.32917291
C       -1.26673796      -1.08220487       0.22517291
C       -2.29873796      -0.55920487      -0.55982709
C       -1.60273796      -1.76820487       1.39017291
C       -3.63573796      -0.74820487      -0.22482709
C       -2.94173796      -1.94820487       1.74417291
C       -3.97573796      -1.44720487       0.93917291
H       -0.23273796      -0.95220487      -0.06282709
H       -2.04673796      -0.01720487      -1.45982709
H       -0.82173796      -2.17520487       2.01617291
H       -4.40873796      -0.34320487      -0.86282709
H       -3.17573796      -2.49320487       2.63417291
H       -5.99573796      -0.78020487       1.09017291
H       -5.35073796      -1.73220487       2.38617291
H       -5.86309796      -2.54568687       0.84034291
C        0.75726204       1.69979513       1.34517291
C        1.67726204       2.66379513       2.15617291
C        1.58226204       1.18679513       0.18917291
C        1.59926204       1.93479513      -0.99582709
C        2.36126204       0.03879513       0.31917291
C        2.35426204       1.52779513      -2.08682709
C        3.14326204      -0.37420487      -0.76282709
C        3.12226204       0.37779513      -1.94782709
O        3.91726204      -0.06520487      -2.94482709
H        0.42126204       0.87379513       1.97417291
H       -0.12473796       2.19079513       0.93517291
H        2.29726204       3.21279513       1.44617291
H        0.99226204       2.82979513      -1.06882709
H        2.35826204      -0.52820487       1.23917291
H        2.32826204       2.09279513      -3.00082709
H        3.75226204      -1.26420487      -0.67382709
H        4.38626204      -0.86020487      -2.67382709
H        2.31142204       2.10044513       2.85651291
H        1.06011204       3.41703513       2.66779291
