16
Properties=species:S:1:pos:R:3 pbc="F F F"
C       -0.89093430      -1.68984421      -0.78970738
C        0.30906570      -2.38884421      -1.38370738
H       -0.80093430      -1.62884421       0.29429262
H       -0.95193430      -0.68184421      -1.19470738
H       -1.80593430      -2.22484421      -1.04470738
H        1.21706570      -1.88384421      -1.04870738
H        0.25106570      -2.26284421      -2.46470738
H        0.36864570      -3.45913711      -1.13687738
C       -0.12493430       1.75615579       0.51929262
C        0.70706570       2.31915579       1.65729262
H        0.12206570       0.70815579       0.36229262
H       -1.18493430       1.82415579       0.76529262
H        0.06506570       2.31015579      -0.39870738
H        0.54106570       1.69515579       2.53629262
H        1.77366570       2.29699479       1.38921262
H        0.40196570       3.34697779       1.90325262
