16
Properties=species:S:1:pos:R:3 pbc="F F F"
C        1.34504844       1.24023987      -1.12062867
C        2.33304844       0.87023987      -0.01362867
H        1.73504844       2.08223987      -1.69562867
H        1.21504844       0.39023987      -1.79162867
H        0.37104844       1.51823987      -0.73062867
H        1.94104844       0.01723987       0.53937133
H        2.46743844       1.71587987       0.67690133
H        3.29832844       0.59546987      -0.46389867
C       -1.56395156      -0.36276013       0.71037133
C       -2.10695156      -1.74876013       0.43337133
H       -0.92295156      -0.06976013      -0.11462867
H       -2.38695156       0.34923987       0.78537133
H       -0.98895156      -0.36776013       1.63137133
H       -2.38295156      -1.80776013      -0.62162867
H       -3.02695156      -1.84976013       0.99937133
H       -1.40492156      -2.56111013       0.67263133
