24
Properties=species:S:1:pos:R:3 pbc="F F F"
C        0.40590095       2.31321947      -1.31899176
C       -1.09809905       0.99121947       0.17000824
N       -0.77909905       1.51921947      -1.00199176
N       -0.32909905       1.17021947       1.22800824
N       -2.19109905       0.24821947       0.26500824
H       -1.46109905       1.36521947      -1.74399176
H        0.46890095       1.77921947       1.17000824
H       -0.56509905       0.73821947       2.10900824
H       -2.75509905       0.10021947      -0.56599176
H       -2.46109905      -0.16378053       1.14200824
H        1.28990095       1.87421947      -0.85299176
H        0.27590095       3.34021947      -0.97099176
H        0.53650095       2.30173947      -2.41115176
C        0.81290095      -2.23478053       0.30400824
C        1.35690095      -1.99178053      -1.11499176
C        1.82590095      -2.06178053       1.43300824
H       -0.00709905      -1.54078053       0.47000824
H        0.40590095      -3.24178053       0.37300824
H        1.88990095      -1.03878053      -1.13099176
H        2.61390095      -2.80578053       1.31200824
H        2.28390095      -1.07378053       1.36000824
H        0.52781095      -1.94972053      -1.83669176
H        2.05763095      -2.78964053      -1.40205176
H        1.38224095      -2.16101053       2.43466824
