26
Properties=species:S:1:pos:R:3 pbc="F F F"
C       -0.20590249       2.40812686      -1.73239748
C       -0.19590249       1.07012686      -2.44339748
C       -1.54890249       2.99012686      -2.11039748
H        0.61809751       3.04212686      -2.06039748
H       -0.17290249       2.26512686      -0.65339748
H        0.08909751       1.21512686      -3.48639748
H        0.49109751       0.38212686      -1.95239748
H       -1.45390249       3.54312686      -3.04239748
H       -1.93290249       3.64412686      -1.32539748
H       -1.24115849       0.73253686      -2.38448848
H       -2.19980449       2.11632686      -2.26137248
C        2.39809751      -1.36787314      -0.21439748
C        0.69509751       0.11812686       0.85560252
C        1.12709751      -1.16187314       0.56160252
C       -0.49490249       0.31712686       1.52560252
C        0.35909751      -2.24487314       0.95860252
C       -1.28090249      -0.76587314       1.89760252
C       -0.83790249      -2.05187314       1.63260252
H        1.29109751       0.97212686       0.56360252
H       -0.82090249       1.32312686       1.75060252
H        2.49809751      -0.56587314      -0.94839748
H        2.30209751      -2.29987314      -0.77339748
H        0.69509751      -3.24987314       0.74660252
H       -2.21790249      -0.60487314       2.41360252
H       -1.43590249      -2.90287314       1.92360252
H        3.31225751      -1.40581414       0.39623552
