23
Properties=species:S:1:pos:R:3 pbc="F F F"
C       -3.22780376      -1.05976442       1.11227341
C       -3.24080376      -1.69876442       2.48827341
H       -2.40480376      -0.35476442       1.03927341
H       -3.09680376      -1.82676442       0.35027341
H       -4.16980376      -0.54276442       0.93227341
H       -2.27780376      -2.17376442       2.66627341
H       -3.42550186      -0.95422442       3.27665341
H       -4.02196172      -2.47129442       2.54289341
C        3.44519624       0.54223558      -0.03272659
C       -0.75680376       0.38523558      -1.01972659
C        0.02119624      -0.77176442      -1.07772659
C       -0.17280376       1.58923558      -0.62772659
C        1.38219624      -0.72276442      -0.74972659
C        1.19119624       1.63723558      -0.31572659
C        1.97519624       0.48323558      -0.36472659
H       -1.80380376       0.34323558      -1.28072659
H       -0.42380376      -1.71576442      -1.35672659
H       -0.76980376       2.49023558      -0.58072659
H        1.96319624      -1.63276442      -0.78172659
H        1.63619624       2.57923558      -0.02672659
H        3.62319624      -0.05576442       0.85827341
H        3.72619624       1.57223558       0.19727341
H        4.09612024       0.16587558      -0.83562659
