24
Properties=species:S:1:pos:R:3 pbc="F F F"
C        2.52123357      -0.21794302       0.87555237
C        0.03523357      -0.18994302       0.57555237
C        1.26323357      -0.72694302       0.20755237
C       -1.12976643      -0.60794302      -0.05844763
C        1.28623357      -1.73694302      -0.76144763
C       -1.08076643      -1.56994302      -1.05444763
C        0.13023357      -2.15894302      -1.39144763
O       -2.25376643      -1.92894302      -1.65944763
H       -0.02276643       0.54505698       1.36455237
H       -2.08476643      -0.21694302       0.24955237
H        2.99023357      -1.04394302       1.41055237
H        2.23823357       0.52705698       1.62055237
H        2.22023357      -2.21294302      -1.01544763
H        0.17123357      -2.94194302      -2.13244763
H       -2.04476643      -2.45294302      -2.45444763
H        3.25523857       0.23982698       0.19608237
C       -0.02476643       3.47105698       1.29955237
C       -0.43476643       4.84505698       1.80555237
H        0.95823357       3.20805698       1.69455237
H       -0.75276643       2.73505698       1.63855237
H        0.00123357       3.45005698       0.20955237
H       -1.38376643       5.07205698       1.31455237
H        0.28821057       5.61881698       1.50790237
H       -0.63902243       4.89219698       2.88539237
