27
Properties=species:S:1:pos:R:3 pbc="F F F"
C        1.57726474      -2.94189816       1.61010443
C       -0.31273526       0.30110184       1.33810443
C       -1.39173526      -0.02089816       0.54110443
C        0.62726474      -0.65689816       1.65810443
C        0.49626474      -1.96789816       1.22010443
C       -1.56073526      -1.33089816       0.10010443
C       -0.60873526      -2.30389816       0.41110443
O       -2.30173526       0.94710184       0.22610443
H       -0.19873526       1.31710184       1.69010443
H        1.47326474      -0.38589816       2.26710443
H       -2.41573526      -1.59089816      -0.50789557
H       -3.01273526       0.60510184      -0.32989557
H        1.75126474      -2.85089816       2.68410443
H        2.49426474      -2.62789816       1.11310443
H       -0.75373526      -3.30989816       0.04210443
H        1.39539474      -4.00061916       1.37338943
C        0.58426474       2.34310184      -1.81389557
C        1.97626474       2.11610184      -1.29789557
C        0.81026474       2.68210184      -3.29589557
H        0.07326474       3.14710184      -1.28489557
H        0.01526474       1.41510184      -1.73889557
H        2.43926474       3.06310184      -1.01689557
H        1.94526474       1.43310184      -0.44989557
H        0.99426474       3.75210184      -3.38889557
H       -0.06173526       2.40810184      -3.89189557
H        2.50743474       1.69041184      -2.16198457
H        1.70047474       2.11214184      -3.60030857
