20
Properties=species:S:1:pos:R:3 pbc="F F F"
C       -2.42959185       2.49342847       2.90620084
C       -1.47259185       1.41242847       2.43820084
O       -1.55659185       1.04042847       1.24820084
O       -0.63759185       0.94742847       3.24820084
H       -3.44859185       2.17942847       2.68520084
H       -2.22859185       3.40842847       2.34620084
H       -2.35180185       2.69293847       3.98515584
C        2.28840815      -0.54757153      -3.50979916
C        0.94740815      -1.31857153      -1.58079916
N        0.01440815      -1.07957153      -0.68079916
N        1.26640815      -0.39057153      -2.46779916
N        1.55740815      -2.48757153      -1.58979916
H       -0.40559185      -0.16857153      -0.58079916
H       -0.19559185      -1.77257153       0.01720084
H        0.71740815       0.45442847      -2.46079916
H        2.28240815      -2.65657153      -2.26579916
H        1.31940815      -3.19657153      -0.91579916
H        1.95240815      -1.29157153      -4.23479916
H        3.21640815      -0.90457153      -3.07579916
H        2.46898815       0.39506847      -4.04721416
