16
Properties=species:S:1:pos:R:3 pbc="F F F"
C        0.66500151       1.67303908       0.63453678
C        0.81100151       2.25303908      -0.81046322
H        1.42200151       2.09103908       1.29053678
H       -0.32299849       1.90403908       1.03553678
H        0.79800151       0.62603908       0.63253678
H        0.03700151       1.81803908      -1.44646322
H        1.80549151       2.05723908      -1.23785322
H        0.65443151       3.34183908      -0.80902322
C       -0.50799849      -1.39596092      -0.36546322
C       -0.96799849      -2.53196092       0.54253678
H       -1.24099849      -0.58896092      -0.35146322
H        0.44800151      -1.05796092      -0.02746322
H       -0.38699849      -1.75796092      -1.38246322
H       -0.22099849      -3.32696092       0.52253678
H       -1.93109849      -2.92736092       0.18748678
H       -1.06190849      -2.15706092       1.57242678
