26
Properties=species:S:1:pos:R:3 pbc="F F F"
C        1.46271489      -0.95403285       0.36371926
C        1.99571489      -2.28603285      -0.13628074
C        0.24071489      -0.49403285      -0.37228074
C       -1.02328511      -0.78403285       0.13371926
C        0.35571489       0.22296715      -1.55428074
C       -2.15328511      -0.35703285      -0.54428074
C       -0.77028511       0.65596715      -2.23928074
C       -2.03128511       0.36396715      -1.73228074
H        1.22271489      -1.06203285       1.42171926
H        2.23871489      -0.19103285       0.27671926
H        1.23271489      -3.05003285       0.02271926
H       -1.12528511      -1.34303285       1.05171926
H        1.33171489       0.45796715      -1.95328074
H       -3.13528511      -0.58903285      -0.15528074
H       -0.67228511       1.21396715      -3.16028074
H       -2.91528511       0.68796715      -2.26228074
H        2.90244489      -2.55298285       0.42635926
H        2.20038489      -2.23414285      -1.21583074
C        0.19671489       1.24296715       2.95771926
C        1.12171489       2.24096715       2.27371926
H       -0.17628511       1.64596715       3.89971926
H       -0.65328511       1.02896715       2.30971926
H        0.72771489       0.31496715       3.16271926
H        1.46471489       1.81696715       1.33071926
H        1.98838489       2.45291715       2.91711926
H        0.57541489       3.17003715       2.05374926
