27
Properties=species:S:1:pos:R:3 pbc="F F F"
C       -2.07023338       2.62070233       2.34771661
C       -1.05723338      -0.16129767       0.01571661
C       -0.26323338       0.53570233      -0.90528339
C       -1.66923338       0.51270233       1.02271661
C       -1.49523338       1.88570233       1.15571661
C       -0.12023338       1.89870233      -0.84528339
C       -0.71823338       2.57270233       0.20871661
O        0.32476662      -0.11529767      -1.90328339
H       -1.21823338      -1.22129767      -0.11528339
H       -2.43823338       0.02470233       1.57771661
H        0.46776662       2.43270233      -1.57728339
H        0.46876662       0.47070233      -2.68328339
H       -2.89423338       2.06070233       2.79371661
H       -2.43223338       3.59970233       2.02871661
H       -0.57523338       3.64070233       0.30671661
H       -1.25108338       2.74139233       3.07188661
C        1.67576662      -2.65029767      -0.23528339
C        3.05676662      -2.05629767      -0.51728339
C        1.61376662      -4.15329767       0.00571661
H        1.24176662      -2.14429767       0.62771661
H        1.03676662      -2.43529767      -1.09228339
H        3.71376662      -2.28129767       0.32171661
H        2.05076662      -4.65029767      -0.84728339
H        2.96680662      -0.96453767      -0.61715339
H        3.47288662      -2.49126767      -1.43796339
H        2.15767662      -4.48318767       0.90312661
H        0.55726662      -4.44464767       0.10018661
