24
Properties=species:S:1:pos:R:3 pbc="F F F"
C        0.52360667       0.16673072      -2.69419816
C       -0.33639333       0.64773072      -3.87519816
S        2.06560667       1.07373072      -2.42719816
H       -0.07239333       0.21673072      -1.78019816
H        0.76960667      -0.88526928      -2.85719816
H       -1.21739333       0.00973072      -3.94319816
H        2.54460667       0.30873072      -1.43719816
H        0.21503667       0.57340072      -4.82408816
H       -0.70070333       1.67318072      -3.71480816
C       -2.70039333      -0.06926928       3.33880184
C        0.22360667       0.47173072       0.96080184
C       -0.87339333       0.71573072       1.79280184
C        0.70460667      -0.82826928       0.80180184
C       -1.49939333      -0.33326928       2.46880184
C        0.08360667      -1.88226928       1.47480184
C       -1.01439333      -1.63226928       2.30480184
H        0.69760667       1.29573072       0.44380184
H       -1.23639333       1.72673072       1.90980184
H        1.55760667      -1.02326928       0.16580184
H        0.45360667      -2.89226928       1.35780184
H       -2.43639333       0.69573072       4.07080184
H       -2.94739333      -0.97626928       3.88980184
H       -1.49339333      -2.45326928       2.81880184
H       -3.58152333       0.26952072       2.77415184
