20
Properties=species:S:1:pos:R:3 pbc="F F F"
C        1.79634970      -2.20668391       0.95555402
C        0.49434970      -1.48568391       0.63855402
O        0.23234970      -0.38068391       1.10555402
N       -0.34565030      -2.12468391      -0.14944598
H        1.63234970      -2.79468391       1.85755402
H        2.57134970      -1.47968391       1.18955402
H       -1.21565030      -1.69668391      -0.41044598
H       -0.14265030      -3.06368391      -0.45844598
H        2.12467270      -2.89736391       0.16488402
C       -0.77365030       2.19231609      -0.27944598
C        0.43734970       2.63231609      -1.08144598
C       -1.80465030       1.45031609      -1.12644598
H       -0.47365030       1.63731609       0.58255402
H       -1.24565030       3.09831609       0.10155402
H        0.21834970       3.56231609      -1.60844598
H        0.68334970       1.85631609      -1.80644598
H       -2.29065030       2.15531609      -1.81144598
H       -1.27465030       0.70931609      -1.73544598
H        1.29000770       2.76527609      -0.39931898
H       -2.54629330       0.94121609      -0.49337198
