12
Properties=species:S:1:pos:R:3 pbc="F F F"
C        0.27194554      -1.78816311       1.32084738
O       -0.42705446      -1.38216311       0.15384738
H       -0.42105446      -2.11816311      -0.49015262
H        0.10994554      -2.85116311       1.49384738
H        1.34308554      -1.57206911       1.19449738
H       -0.14997446      -1.21400111       2.15888738
C        0.51794554       1.95283689      -1.18315262
O       -0.34405446       1.32583689      -0.24315262
H       -0.27105446       0.35283689      -0.29615262
H        0.01794554       2.81983689      -1.61715262
H        0.75094554       1.24183689      -1.97815262
H        1.44713554       2.27269789      -0.68889262
