16
Properties=species:S:1:pos:R:3 pbc="F F F"
C       -0.88829556      -0.12769063      -1.43810940
C       -1.98729556      -0.61169063      -2.30610940
H       -0.64429556       0.90530937      -1.66810940
H       -1.21329556      -0.17669063      -0.40010940
H        0.00170444      -0.74469063      -1.56010940
H       -2.85629556       0.03730937      -2.18810940
H       -2.24729556      -1.61069063      -1.95510940
H       -1.67589356      -0.64124463      -3.36069940
C        1.66470444       0.62630937       1.15989060
C        1.21070444       0.11130937       2.57989060
H        1.10570444       1.52430937       0.88889060
H        2.72370444       0.87530937       1.21489060
H        1.51070444      -0.14669063       0.40589060
H        1.42170444       0.88530937       3.31189060
H        0.12836044      -0.07505463       2.51825060
H        1.74736444      -0.81148363       2.84531060
