16
Properties=species:S:1:pos:R:3 pbc="F F F"
C        1.07527668       0.21760873      -1.99159535
C        1.26227668      -1.23539127      -1.54759535
H        0.07427668       0.36460873      -2.40159535
H        1.18927668       0.86960873      -1.12459535
H        1.82627668       0.51660873      -2.72259535
H        0.56327668      -1.44339127      -0.74159535
H        1.03814668      -1.91486127      -2.38310535
H        2.28743668      -1.37865127      -1.17539535
C       -0.64172332       0.20960873       1.30140465
C       -1.69072332       0.80560873       2.23540465
H        0.35827668       0.31860873       1.72340465
H       -0.85772332      -0.84739127       1.15240465
H       -0.68872332       0.71660873       0.33840465
H       -2.67672332       0.67160873       1.78540465
H       -1.49904332       1.87944873       2.37727465
H       -1.67560332       0.27775873       3.20036465
