15
Properties=species:S:1:pos:R:3 pbc="F F F"
C        3.16098745       0.17840739      -0.92485683
N        2.49698745      -0.64859261       0.12714317
H        1.52298745      -0.34459261       0.20314317
H        2.46698745      -1.62359261      -0.15785683
H        2.89898745      -0.57059261       1.05114317
H        2.54798745       0.13340739      -1.83285683
H        4.13798745      -0.21659261      -1.21885683
H        3.23441645       1.23808739      -0.63905883
C       -2.18301255       0.39440739       1.45314317
C       -1.48401255       0.12240739       0.13414317
O       -0.35801255       0.63640739      -0.06185683
O       -2.05901255      -0.59859261      -0.71385683
H       -3.07101255      -0.22459261       1.54714317
H       -2.54401255       1.42140739       1.38814317
H       -1.49919055       0.31555739       2.31114717
