16
Properties=species:S:1:pos:R:3 pbc="F F F"
C       -0.66843479       0.61348348      -1.34278383
C       -2.03343479       0.30648348      -1.92578383
H        0.11856521       0.23648348      -1.99578383
H       -0.55843479       1.68948348      -1.21778383
H       -0.59443479       0.13748348      -0.37578383
H       -2.78743479       0.75148348      -1.27878383
H       -2.18118179      -0.78225652      -1.97885383
H       -2.11243479       0.74888348      -2.92979383
C        0.62156521      -0.57351652       1.83521617
C        2.07956521      -0.34551652       1.43121617
H        0.02156521       0.32148348       1.68421617
H        0.21256521      -1.38951652       1.24021617
H        0.56356521      -0.84851652       2.88421617
H        2.13856521      -0.24951652       0.34721617
H        2.47917421       0.56498348       1.90164617
H        2.70872821      -1.19160652       1.74471617
