16
Properties=species:S:1:pos:R:3 pbc="F F F"
C       -1.17209121      -0.51013493       1.75266359
C       -0.47809121      -1.83213493       1.43966359
H       -0.47309121       0.15686507       2.25266359
H       -1.53009121      -0.03913493       0.84066359
H       -2.03109121      -0.68613493       2.39966359
H        0.42190879      -1.60813493       0.86666359
H       -0.17992521      -2.33219493       2.37295899
H       -1.12788221      -2.45718493       0.80951859
C        0.42090879       1.38486507      -0.99333641
C        1.22390879       0.95686507      -2.19933641
H       -0.39209121       0.68086507      -0.84533641
H        1.05690879       1.38686507      -0.10833641
H       -0.00009121       2.37286507      -1.15333641
H        1.48290879      -0.09813493      -2.08933641
H        2.14790879       1.51586507      -2.19433641
H        0.68855379       1.11402507      -3.14733141
