17
Properties=species:S:1:pos:R:3 pbc="F F F"
C       -0.87865380       2.16036435       0.58241751
C        0.34334620       1.37336435       0.16341751
O        1.26034620       1.14736435       0.95441751
N        0.36134620       0.93336435      -1.08758249
H       -1.01265380       2.99736435      -0.10458249
H       -0.70565380       2.57136435       1.57341751
H        1.17334620       0.41636435      -1.39058249
H       -0.38265380       1.16336435      -1.72958249
H       -1.78469380       1.53678435       0.56720851
C       -0.14465380      -2.32963565       0.24441751
C       -0.92065380      -3.16463565      -0.77258249
H       -0.16665380      -1.28763565      -0.03958249
H       -0.61165380      -2.43063565       1.22241751
H        0.88534620      -2.67363565       0.32641751
H       -0.87065380      -4.21463565      -0.48458249
H       -0.49611380      -3.02575565      -1.77780829
H       -1.98100380      -2.87262565      -0.79209819
