16
Properties=species:S:1:pos:R:3 pbc="F F F"
C       -1.73021728      -0.90478368      -0.81199009
C       -1.96221728      -1.69178368       0.47700991
H       -2.33721728      -1.29578368      -1.62699009
H       -2.00721728       0.13721632      -0.65299009
H       -0.67821728      -0.95378368      -1.09799009
H       -3.01921728      -1.62978368       0.72600991
H       -1.68587428      -2.74717268       0.33633891
H       -1.38786128      -1.24482268       1.30183691
C        1.14978272       1.36421632      -0.13099009
C        2.54678272       1.22821632       0.46300991
H        1.10578272       0.88121632      -1.10899009
H        0.42578272       0.90521632       0.53500991
H        0.87278272       2.41321632      -0.23999009
H        2.57078272       1.69521632       1.44200991
H        3.29065172       1.72173632      -0.17971509
H        2.80059972       0.16679632       0.60073491
