15
Properties=species:S:1:pos:R:3 pbc="F F F"
C        1.97199841      -0.47029693      -2.59716549
N        1.71299841      -0.10729693      -1.17816549
H        0.73999841      -0.18929693      -0.88516549
H        2.26399841      -0.67829693      -0.54816549
H        1.96499841       0.85570307      -0.99416549
H        1.84999841      -1.54929693      -2.73316549
H        3.00099841      -0.21629693      -2.87216549
H        1.28292841       0.04668907      -3.28119549
C       -2.05900159       0.72770307       1.78683451
C       -0.94200159       0.11570307       0.95283451
O       -0.07400159       0.87670307       0.47483451
O       -0.91400159      -1.12229693       0.78383451
H       -2.47200159       1.59570307       1.27183451
H       -1.62900159       1.06870307       2.73083451
H       -2.86256159       0.00959307       2.00729451
