22
Properties=species:S:1:pos:R:3 pbc="F F F"
C        3.88266723       1.71368324       0.60855412
C       -0.32133277       0.89468324       0.33455412
C        0.12566723       2.19168324       0.50155412
C        0.59066723      -0.13231676       0.25855412
C        1.49366723       2.45868324       0.57555412
C        1.96066723       0.13068324       0.32955412
C        2.41966723       1.43068324       0.48055412
H       -1.37533277       0.68268324       0.25855412
H       -0.58033277       3.00568324       0.57755412
H        0.25366723      -1.15031676       0.14155412
H        1.82466723       3.47768324       0.72255412
H        2.66266723      -0.69031676       0.27255412
H        4.44466723       0.77968324       0.55455412
H        4.06366723       2.13568324       1.59455412
H        4.27517723       2.40962224      -0.14749588
C       -2.36233277      -1.45431676      -2.05244588
C       -2.33833277      -1.97431676      -0.61444588
O       -3.11933277      -1.48431676       0.24155412
O       -1.51033277      -2.88331676      -0.35244588
H       -2.21633277      -2.29431676      -2.73544588
H       -1.52833277      -0.76431676      -2.18744588
H       -3.29442277      -0.93489776      -2.31967588
