13
Properties=species:S:1:pos:R:3 pbc="F F F"
C        0.54870293       2.47733220      -1.38865230
O       -0.00729707       2.46033220      -0.08765230
H       -0.02929707       1.54033220       0.24734770
H        1.32070293       1.71033220      -1.46065230
H        1.00170293       3.45333220      -1.57165230
H       -0.23086707       2.28911220      -2.14154230
C       -0.31529707      -1.42566780      -1.03365230
C       -0.13929707      -1.32066780       0.47534770
O        0.03970293      -0.18566780       0.97234770
O       -0.16929707      -2.36566780       1.15434770
H        0.40970293      -2.13266780      -1.43365230
H       -0.09029707      -0.46566780      -1.49165230
H       -1.33027707      -1.74500780      -1.31263230
