16
Properties=species:S:1:pos:R:3 pbc="F F F"
C       -1.54119397       0.76715399       0.22417942
C       -1.96519397       1.69815399       1.32917942
H       -0.78719397       1.24915399      -0.39682058
H       -1.15119397      -0.14684601       0.66417942
H       -2.39619397       0.49815399      -0.39482058
H       -1.09619397       2.02915399       1.89117942
H       -2.60919397       1.12315399       1.99617942
H       -2.51664397       2.56244399       0.93055242
C        1.21780603      -0.70684601      -0.91682058
C        2.29180603      -1.75384601      -0.63982058
H        1.58180603       0.12015399      -1.50682058
H        0.36680603      -1.16384601      -1.42282058
H        0.90980603      -0.30184601       0.04217942
H        2.61580603      -2.17184601      -1.59482058
H        3.15140603      -1.27899601      -0.14422958
H        1.89256603      -2.57383601      -0.02482658
