27
Properties=species:S:1:pos:R:3 pbc="F F F"
C       -1.43564063      -2.24259318       3.61364411
C       -0.99964063      -0.12159318       0.53164411
C       -1.64564063       1.05140682       0.88764411
C       -0.94664063      -1.17759318       1.42564411
C       -1.50364063      -1.06559318       2.69164411
C       -2.21364063       1.17040682       2.14664411
C       -2.15364063       0.11240682       3.04464411
H       -0.55064063      -0.21759318      -0.44735589
H       -1.69664063       1.87440682       0.18764411
H       -0.45964063      -2.09259318       1.12164411
H       -2.70164063       2.09340682       2.41464411
H       -0.64264063      -2.90459318       3.26164411
H       -2.37664063      -2.78959318       3.52764411
H       -2.56264063       0.21040682       4.03164411
H       -1.25238263      -2.01621618       4.67438411
C        3.14035937      -1.21659318      -1.74235589
C        1.05635937       1.74640682      -2.06835589
C        2.17135937      -0.14659318      -2.17035589
C        1.42735937      -0.03159318      -3.30735589
N        1.91535937       0.97740682      -1.41135589
N        0.74435937       1.16240682      -3.22035589
H        0.66835937       2.69740682      -1.72435589
H        0.09335937       1.54040682      -3.90035589
H        1.40035937      -0.74359318      -4.11935589
H        2.74835937      -2.18059318      -2.06435589
H        3.19935937      -1.22959318      -0.65335589
H        4.14895937      -1.07989318      -2.15953689
