18
Properties=species:S:1:pos:R:3 pbc="F F F"
C        0.55279773       1.89769194       2.08521376
C        0.56779773       1.41469194       0.63821376
O       -0.46720227       0.95269194       0.09921376
O        1.65179773       1.47969194       0.02221376
H        0.80279773       2.95669194       2.13921376
H        1.34979773       1.36669194       2.60821376
H       -0.37990227       1.67751194       2.62520376
C       -1.33220227      -2.01130806      -0.88378624
C       -0.29220227      -2.58030806       0.05321376
N       -0.65620227      -1.04430806      -1.79578624
H       -1.79620227      -2.82230806      -1.45578624
H       -2.11220227      -1.50330806      -0.30278624
H        0.24479773      -1.75930806       0.53621376
H        0.42879773      -3.18130806      -0.50478624
H        0.16879773      -1.43830806      -2.23478624
H       -1.27120227      -0.73230806      -2.54078624
H       -0.36720227      -0.22630806      -1.24478624
H       -0.74850227      -3.19014806       0.84687376
