18
Properties=species:S:1:pos:R:3 pbc="F F F"
C       -1.98235774      -2.01025056       0.49419346
C       -2.82035774      -1.92925056       1.76119346
H       -0.96735774      -2.33725056       0.72419346
H       -2.43435774      -2.73225056      -0.18280654
H       -1.95235774      -1.03725056       0.00219346
H       -2.79635774      -2.89625056       2.25819346
H       -2.41784674      -1.15807156       2.43444346
H       -3.87003274      -1.70735656       1.51840346
C       -0.01535774       1.05674944      -0.76980654
C        0.32164226       2.38974944      -1.43880654
C        1.21064226       0.37774944      -0.18980654
O        2.17564226       0.13474944      -0.94580654
O        1.20164226       0.08774944       1.02619346
H       -0.74435774       1.23174944       0.02419346
H       -0.47335774       0.39474944      -1.50680654
H        0.97964226       2.18174944      -2.28280654
H        0.82220816       3.05866944      -0.72328654
H       -0.59777564       2.84331944      -1.83748654
