18
Properties=species:S:1:pos:R:3 pbc="F F F"
C       -1.08561326      -0.38886267       2.43339460
C        0.23538674      -1.03986267       2.70839460
N       -0.89561326       0.92313733       1.76739460
H       -1.67061326      -1.04486267       1.77939460
H       -1.63661326      -0.27586267       3.37339460
H        0.91838674      -0.86386267       1.87639460
H        0.08038674      -2.11886267       2.77439460
H       -0.57861326       0.75813733       0.80539460
H       -1.77861326       1.41513733       1.69339460
H       -0.24261326       1.52413733       2.25439460
H        0.70805674      -0.70822467       3.64466460
C        1.74038674       0.68613733      -1.71060540
C        0.38938674       0.04913733      -1.75960540
O       -0.31461326      -0.06186267      -0.73360540
O        0.00738674      -0.30186267      -2.88860540
H        1.80038674       1.39913733      -2.53560540
H        2.49538674      -0.08386267      -1.87960540
H        1.97939674       1.20721633      -0.77180540
