20
Properties=species:S:1:pos:R:3 pbc="F F F"
C       -0.13333119      -2.39292401      -0.37973219
C       -1.61833119      -2.21492401      -0.73873219
H        0.16966881      -3.42692401      -0.54873219
H        0.49366881      -1.76092401      -1.00573219
H        0.04266881      -2.13392401       0.66526781
H       -1.97533119      -1.25892401      -0.37873219
H       -2.22113119      -3.01602401      -0.28609519
H       -1.76024119      -2.19547401      -1.82936619
C        0.39466881       1.01107599       1.32726781
C       -1.10233119       0.93107599       1.56626781
C        0.78866881       0.96007599      -0.13873219
O        1.97166881       1.08607599      -0.45873219
N       -0.16733119       0.75707599      -1.04273219
H        0.76966881       1.94407599       1.75026781
H        0.88166881       0.17807599       1.83426781
H       -1.49633119       0.00907599       1.16426781
H       -1.57833119       1.77807599       1.06726781
H        0.10366881       0.76007599      -2.01573219
H       -1.13733119       0.72007599      -0.78073219
H       -1.35449119       0.96792599       2.63634081
