22
Properties=species:S:1:pos:R:3 pbc="F F F"
C        0.33450049      -0.39338574      -2.69051270
C        1.61050049      -0.85838574      -2.00451270
H        0.37850049      -0.59238574      -3.76051270
H       -0.51449951      -0.93138574      -2.26951270
H        0.18850049       0.67261426      -2.51851270
H        1.74450049      -1.91538574      -2.24051270
H        1.47450049      -0.78638574      -0.93551270
H        2.50482049      -0.28842574      -2.29665270
C       -0.28549951       0.44161426       0.91448730
C        0.06750049       1.27061426       2.15248730
C       -0.00749951      -1.03238574       1.19948730
C       -1.75349951       0.64361426       0.54148730
H        0.32550049       0.77561426       0.08248730
H        1.04950049       0.95561426       2.51348730
H       -0.65449951       1.02161426       2.93348730
H       -0.58649951      -1.35438574       2.06048730
H       -0.29649951      -1.63338574       0.33648730
H        1.05550049      -1.18438574       1.39848730
H       -1.97549951       1.68861426       0.33748730
H       -1.97549951       0.06461426      -0.35651270
H       -2.39649951       0.29061426       1.34848730
H        0.08327049       2.36264426       2.02126730
