27
Properties=species:S:1:pos:R:3 pbc="F F F"
C        2.99012390       0.63402306       3.13507880
C        1.75812390       0.71002306       3.97607880
H        3.07212390      -0.34297694       2.65807880
H        2.94612390       1.40202306       2.36407880
H        3.86812390       0.80802306       3.75907880
H        0.87712390       0.61602306       3.33807880
H        1.74612390       1.71002306       4.40407880
H        1.72653390      -0.06170694       4.75929880
C       -1.95387610      -2.74697694      -0.81592120
C       -0.48887610      -0.58997694      -0.70392120
C       -1.71787610      -1.29097694      -0.98492120
C       -0.69687610       0.76302306      -1.03992120
C       -2.59587610      -0.36797694      -1.43292120
C        1.75712390      -0.02897694      -0.09292120
C        1.51212390       1.31002306      -0.41192120
C        0.77012390      -0.98797694      -0.24692120
C        0.29012390       1.72502306      -0.88092120
N       -1.99187610       0.86302306      -1.46092120
H        2.73812390      -0.32297694       0.25707880
H        2.30812390       2.03302306      -0.29592120
H        0.95912390      -2.02397694      -0.00692120
H        0.10212390       2.75802306      -1.13392120
H       -1.81787610      -2.98897694       0.23807880
H       -1.18387610      -3.27397694      -1.37992120
H       -3.61787610      -0.55197694      -1.73792120
H       -2.46187610       1.72902306      -1.74192120
H       -2.93874610      -3.10648694      -1.14877120
