15
Properties=species:S:1:pos:R:3 pbc="F F F"
C       -2.16767967      -1.31090954       0.46593782
C       -2.73867967      -0.52590954      -0.70906218
H       -2.89867967      -2.02790954       0.84393782
H       -1.27267967      -1.83690954       0.13893782
H       -1.88867967      -0.62490954       1.26693782
H       -1.95567967       0.13009046      -1.09306218
H       -3.58004967       0.09436046      -0.36648218
H       -3.01513967      -1.21273954      -1.52260218
C        2.24732033      -0.52290954       0.37193782
C        1.18632033       0.51709046       0.03993782
O        0.91132033       0.74709046      -1.15906218
O        0.63832033       1.12609046       0.98993782
H        2.18032033      -0.76290954       1.43393782
H        3.23032033      -0.08490954       0.18593782
H        2.15277033      -1.44905954      -0.21398218
