16
Properties=species:S:1:pos:R:3 pbc="F F F"
C        1.87121576       0.49160544      -1.14902646
C        1.35121576      -0.76039456      -1.86102646
H        2.95921576       0.53160544      -1.19302646
H        1.46721576       1.37560544      -1.64202646
H        1.55021576       0.49060544      -0.10702646
H        0.26321576      -0.71739456      -1.81702646
H        1.66435576      -1.67064356      -1.32868646
H        1.63355576      -0.77047856      -2.92412646
C       -1.38478424      -0.13339456       0.82497354
C       -1.83378424       0.39560544       2.18297354
H       -2.09678424      -0.86939456       0.44997354
H       -1.31678424       0.69060544       0.11497354
H       -0.40478424      -0.60139456       0.91797354
H       -1.13278424       1.17660544       2.48597354
H       -1.79908424      -0.40923256       2.93199354
H       -2.83358424       0.85189544       2.13612354
