20
Properties=species:S:1:pos:R:3 pbc="F F F"
C       -0.21447441      -1.96365300      -1.87207193
C       -1.39347441       0.45234700       0.59892807
C       -0.64147441      -0.73965300      -1.09907193
C       -0.72547441       0.56334700      -1.49907193
N       -1.05147441      -0.76765300       0.22092807
N       -1.19847441       1.28234700      -0.42707193
H       -1.76147441       0.66134700       1.59792807
H       -1.37047441       2.27934700      -0.42707193
H       -0.49347441       1.03134700      -2.44707193
H        0.56452559      -2.45565300      -1.28607193
H        0.21552559      -1.61565300      -2.81107193
H       -1.01524441      -2.68285300      -2.09904193
C        2.21052559      -0.19865300       1.68792807
C        2.51652559       1.25834700       2.09592807
H        1.42152559      -0.21265300       0.93792807
H        3.10552559      -0.66265300       1.27492807
H        1.88352559      -0.76765300       2.55992807
H        3.29752559       1.26434700       2.84792807
H        1.58934739       1.68144700       2.50981807
H        2.94998959       1.80924700       1.24821807
