19
Properties=species:S:1:pos:R:3 pbc="F F F"
C       -1.66699305      -1.64520387      -0.35240190
C       -1.98299305      -2.42820387      -1.57040190
H       -0.61299305      -1.38620387      -0.30540190
H       -2.25699305      -0.72820387      -0.34940190
H       -1.94499305      -2.22320387       0.52659810
H       -2.01299305      -1.75420387      -2.41640190
H       -2.98499305      -2.84720387      -1.46240190
H       -1.26872305      -3.24709387      -1.74139390
C        0.97100695       0.89879613       0.58059810
C        2.31200695       1.24079613      -0.09140190
C        0.44600695       1.99279613       1.46459810
H        0.22800695       0.68679613      -0.18740190
H        1.05700695       0.00979613       1.20259810
H        2.87400695       1.88579613       0.58159810
H        0.25700695       2.89779613       0.88759810
H       -0.48099305       1.66179613       1.92859810
H        1.16500695       2.20579613       2.25659810
H        2.92104695       0.34194613      -0.26787190
H        2.11884695       1.79359613      -1.02258590
