21
Properties=species:S:1:pos:R:3 pbc="F F F"
C        0.19012377      -2.08826355       2.98890980
C       -0.10787623      -0.90226355       2.08090980
O        0.69012377       0.04973645       1.97290980
N       -1.32187623      -0.91526355       1.48990980
H       -0.54887623      -2.87426355       2.82990980
H        0.06612377      -1.75326355       4.01990980
H       -1.56587623      -0.13626355       0.89390980
H       -1.98087623      -1.65726355       1.66990980
H        1.20213377      -2.50585355       2.88190980
C        0.94312377       0.15473645      -1.11709020
C        1.35412377      -0.55026355      -2.38009020
C       -0.29287623       2.09973645      -2.47309020
S       -0.65787623       0.97773645      -1.13709020
H        0.93012377      -0.59826355      -0.33709020
H        1.69612377       0.89973645      -0.85509020
H        1.27512377       0.10173645      -3.24309020
H        0.68212377      -1.38326355      -2.51609020
H       -0.91087623       1.83773645      -3.32709020
H       -0.50887623       3.08673645      -2.08209020
H        0.76112377       2.08773645      -2.74509020
H        2.37806377      -0.94642355      -2.31226020
