18
Properties=species:S:1:pos:R:3 pbc="F F F"
C       -0.33220385       0.25469127      -0.39163468
C        0.06979615       0.70269127      -1.79163468
C       -1.30020385       1.19969127       0.30736532
O       -2.41320385       0.76469127       0.59336532
O       -0.95620385       2.35669127       0.67036532
H       -0.78920385      -0.73330873      -0.47963468
H        0.55979615       0.12969127       0.21636532
H       -0.82420385       0.66169127      -2.41463468
H        0.76479615      -0.04330873      -2.18063468
H        0.52486515       1.69583127      -1.92042768
C        2.62179615      -1.85530873       0.38336532
C        2.18979615      -3.30230873       0.22436532
H        2.19379615      -1.42830873       1.28836532
H        3.70879615      -1.80930873       0.46536532
H        2.30679615      -1.27230873      -0.48263468
H        2.57779615      -3.87130873       1.05436532
H        1.09629015      -3.41938873       0.20123732
H        2.64599715      -3.69912873      -0.69455368
