27
Properties=species:S:1:pos:R:3 pbc="F F F"
C        1.09234114      -1.30678208      -1.68664590
C        0.44734114      -1.55578208      -3.01764590
C        1.80134114       0.02021792      -1.85264590
H        1.83334114      -2.07278208      -1.51264590
H        0.36634114      -1.29278208      -0.87864590
H        0.43934114      -2.62378208      -3.24364590
H       -0.56765886      -1.16078208      -2.99564590
H        2.62934114       0.13021792      -1.15064590
H        1.08534114       0.82921792      -1.70664590
H        1.06264114      -0.99676108      -3.73799590
H        2.13756114       0.01878392      -2.90000590
C       -1.69965886      -0.39878208       0.82335410
C       -2.75965886      -0.39378208      -0.25864590
C        0.25534114       0.89021792       1.51535410
N       -0.77365886       0.73221792       0.69535410
N        0.55734114      -0.00578208       2.43035410
N        0.99334114       1.94921792       1.35735410
H       -2.20165886      -0.33478208       1.79235410
H       -1.15965886      -1.34578208       0.77135410
H       -2.27465886      -0.55578208      -1.22264590
H       -3.23065886       0.58921792      -0.26364590
H       -0.95965886       1.47921792       0.02435410
H       -0.03265886      -0.80978208       2.56535410
H        1.34134114       0.14121792       3.04735410
H        0.73834114       2.58121792       0.60535410
H        1.79534114       2.12121792       1.94235410
H       -3.51703886      -1.17286808      -0.08720590
