20
Properties=species:S:1:pos:R:3 pbc="F F F"
C       -0.61738587      -0.96110660       0.00811068
C       -0.59138587      -2.10410660      -1.00988932
C       -1.79038587      -1.11110660       0.95711068
O        0.55761413      -1.00810660       0.79711068
H       -0.68338587      -0.00110660      -0.50788932
H       -1.50838587      -2.03510660      -1.59088932
H       -1.70538587      -0.39810660       1.77511068
H       -2.72138587      -0.96010660       0.41211068
H       -1.80738587      -2.09210660       1.41011068
H        0.56361413      -0.24010660       1.37311068
H       -0.51194067      -3.07918460      -0.50698632
H        0.23510073      -1.98582960      -1.72608092
C        1.01561413       2.53589340       0.31311068
C        1.33461413       2.59789340      -1.17088932
H       -0.03538587       2.77389340       0.47511068
H        1.22361413       1.53889340       0.69211068
H        1.63361413       3.25089340       0.85711068
H        0.63561413       1.94189340      -1.68888932
H        2.36456213       2.25027740      -1.33932202
H        1.19910313       3.62762940      -1.53321712
