20
Properties=species:S:1:pos:R:3 pbc="F F F"
C        1.54114585      -2.47626672      -2.92527929
C        0.58614585      -1.61026672      -2.08927929
O        0.95614585      -1.30326672      -0.92527929
O       -0.52485415      -1.22426672      -2.56727929
H        2.39014585      -2.77526672      -2.31127929
H        1.90614585      -1.89226672      -3.77227929
H        1.06472285      -3.39056672      -3.30884929
C       -0.87185415       2.96373328       2.75372071
C       -0.41985415       0.90473328       1.43972071
N       -0.70485415      -0.36026672       1.22172071
N       -1.03585415       1.54373328       2.41872071
N        0.44914585       1.54273328       0.68272071
H       -1.40385415      -0.83326672       1.78272071
H       -0.23885415      -0.86526672       0.46972071
H       -1.66285415       1.01373328       3.01272071
H        0.63614585       2.52073328       0.84672071
H        0.92214585       1.05473328      -0.06327929
H       -1.26485415       3.56573328       1.93272071
H        0.18814585       3.17373328       2.87872071
H       -1.39171115       3.26063328       3.67656071
