21
Properties=species:S:1:pos:R:3 pbc="F F F"
C       -2.02739601      -1.27664908       0.40288973
C        0.17560399      -0.34964908       1.01288973
N       -1.13339601      -0.20564908       0.85888973
N        0.75060399      -1.50464908       0.73488973
N        0.91160399       0.65435092       1.44488973
H       -1.53039601       0.67435092       1.13088973
H        0.19860399      -2.28664908       0.43888973
H        1.77260399      -1.56464908       0.63688973
H        0.50860399       1.56135092       1.67088973
H        1.89460399       0.50835092       1.58788973
H       -1.97539601      -2.09264908       1.12888973
H       -1.69739601      -1.67064908      -0.55911027
H       -3.07905301      -0.95789908       0.35373973
C        1.30460399       1.43135092      -1.86711027
C       -0.05739601       1.24535092      -2.52411027
H        1.26060399       2.15035092      -1.06611027
H        1.62660399       0.48435092      -1.43811027
H        2.03660399       1.75835092      -2.60611027
H       -0.79439601       1.01335092      -1.75811027
H       -0.34958901       2.16654992      -3.04948127
H       -0.01625801       0.41248792      -3.24149827
