23
Properties=species:S:1:pos:R:3 pbc="F F F"
C        0.11865514      -0.86609563      -0.72217089
C        0.53065514      -1.92009563      -1.73817089
C       -1.57634486      -2.41009563       0.78282911
S       -1.62934486      -0.99809563      -0.26817089
H        0.74265514      -0.93709563       0.16882911
H        0.25765514       0.11090437      -1.18417089
H       -0.26734486      -1.97809563      -2.48117089
H        0.58865514      -2.89009563      -1.24017089
H       -0.59734486      -2.49409563       1.25082911
H       -2.33234486      -2.32509563       1.55882911
H       -1.76034486      -3.31009563       0.19482911
H        1.47101514      -1.70937563      -2.26855889
C        1.24865514       2.04090437       0.49582911
C        1.25265514       2.26290437       2.00982911
C        1.93265514       3.14990437      -0.29417089
H        1.75665514       1.10190437       0.28782911
H        0.21465514       1.97090437       0.15582911
H        0.85465514       3.25590437       2.22282911
H        1.35965514       4.06390437      -0.11717089
H        2.92765514       3.36390437       0.07882911
H        2.26892514       2.15992437       2.41799011
H        0.60293514       1.52005437       2.49567411
H        1.94703514       2.94277437      -1.37439829
