15
Properties=species:S:1:pos:R:3 pbc="F F F"
C       -0.49593684       2.91759302      -0.31575569
N        0.24306316       1.85059302      -1.04175569
H        1.24606316       1.97259302      -0.97975569
H        0.01606316       0.93859302      -0.63575569
H       -0.01893684       1.81159302      -2.01775569
H       -0.14793684       2.99259302       0.71924431
H       -1.56193684       2.67159302      -0.30075569
H       -0.37193684       3.88857302      -0.81756469
C       -0.26493684      -2.61740698       0.78124431
C        0.06706316      -1.20040698       0.35324431
O       -0.82893684      -0.47740698      -0.13675569
O        1.24506316      -0.80340698       0.50824431
H        0.40206316      -2.86140698       1.61324431
H       -0.00093684      -3.36040698       0.04324431
H       -1.27761684      -2.71340698       1.19988631
