16
Properties=species:S:1:pos:R:3 pbc="F F F"
C        1.36490044      -0.87829272       0.51970388
C        2.79790044      -1.31229272       0.75270388
H        0.75490044      -1.06829272       1.40470388
H        1.34590044       0.19070728       0.29770388
H        0.94590044      -1.41729272      -0.33029612
H        3.36090044      -1.04629272      -0.14229612
H        2.85358044      -2.39939272       0.91116388
H        3.20994044      -0.75911272       1.60956388
C       -2.03609956       0.70670728       0.02170388
C       -2.12709956       1.47470728      -1.29229612
H       -2.68609956      -0.16929272      -0.00429612
H       -1.00809956       0.39570728       0.19670388
H       -2.34409956       1.35270728       0.84570388
H       -1.55309956       2.38870728      -1.16429612
H       -3.17655956       1.72399728      -1.50791612
H       -1.69841956       0.91712728      -2.13807612
