23
Properties=species:S:1:pos:R:3 pbc="F F F"
C        1.69091547      -2.69909341      -0.86121182
C       -0.02008453       0.73990659      -0.93021182
C       -1.38508453       0.38090659      -0.73121182
C        0.97791547      -0.27309341      -0.96821182
C        0.63691547      -1.63009341      -0.84021182
C       -1.71508453      -0.98009341      -0.57921182
C       -0.69308453      -1.97209341      -0.63721182
H        0.25591547       1.77690659      -1.06021182
H       -2.15408453       1.14190659      -0.69721182
H        2.00991547       0.00890659      -1.11521182
H       -2.73608453      -1.28009341      -0.42621182
H        2.50291547      -2.38909341      -1.52021182
H        1.25291547      -3.59709341      -1.29321182
H       -0.96308453      -3.01009341      -0.51721182
H        2.10345447      -2.94873341       0.12746818
C       -0.24708453       3.28690659       1.88878818
C        0.50191547       2.53890659       2.98378818
H       -1.26408453       3.51390659       2.20678818
H        0.27191547       4.21690659       1.65978818
H       -0.28508453       2.68290659       0.98778818
H        1.52891547       2.36390659       2.66078818
H       -0.00928953       1.57975659       3.15321818
H        0.49757947       3.18283659       3.87560818
