23
Properties=species:S:1:pos:R:3 pbc="F F F"
C       -0.09093533      -3.57881834      -1.38021018
C       -1.18193533      -4.64081834      -1.52721018
H        0.89906467      -4.03281834      -1.45121018
H       -0.19193533      -2.81981834      -2.15621018
H       -0.18493533      -3.09481834      -0.41521018
H       -2.12593533      -4.12281834      -1.70621018
H       -1.27569533      -5.18419834      -0.57540018
H       -1.00253533      -5.31606834      -2.37683018
C        0.25306467      -0.50081834       0.51478982
C       -0.66593533      -1.04481834       1.63178982
C        0.35506467       0.98518166       0.40278982
C        1.44106467       1.81518166       0.47178982
C       -0.28393533       3.03018166      -0.12521018
N       -0.69993533       1.76318166       0.00678982
N        1.01206467       3.09918166       0.17278982
H        1.25206467      -0.92081834       0.63578982
H       -0.13793533      -0.85781834      -0.43521018
H       -0.82693533      -2.10381834       1.43478982
H        2.45506467       1.50818166       0.69378982
H       -0.90093533       3.86318166      -0.43021018
H        1.58906467       3.93118166       0.11378982
H       -1.64639533      -0.55044834       1.69735482
H       -0.17138533      -0.98074834       2.61225582
