37
Properties=species:S:1:pos:R:3 pbc="F F F"
C        6.00758954      -0.03527552       1.04485786
C        2.43758954       0.47772448      -0.19414214
C        2.60458954       0.45172448      -1.56414214
C        3.53958954       0.30872448       0.66485786
C        4.80758954       0.13172448       0.14285786
C        3.86758954       0.29272448      -2.09414214
C        4.95958954       0.13172448      -1.24214214
H        1.44858954       0.61672448       0.22285786
H        1.75458954       0.57772448      -2.22114214
H        3.38858954       0.32272448       1.73585786
H        4.00558954       0.29072448      -3.16614214
H        6.46558954      -0.99727552       0.81285786
H        5.69458954      -0.05627552       2.08985786
H        5.94058954      -0.00827552      -1.67214214
H        6.75274954       0.76147448       0.90370786
C       -0.71141046      -1.45727552      -1.03414214
C       -1.47841046      -2.34727552      -2.01914214
C       -1.52641046      -0.30327552      -0.54614214
C       -1.50541046       0.96672448      -1.01914214
C       -2.51841046      -0.33327552       0.48185786
C       -3.04941046       0.97472448       0.59585786
C       -2.98241046      -1.32527552       1.35285786
C       -4.04341046       1.29372448       1.49785786
C       -3.96841046      -1.00027552       2.26485786
C       -4.48741046       0.29472448       2.33585786
N       -2.41641046       1.73872448      -0.34114214
H       -0.36741046      -2.04827552      -0.18514214
H        0.17058954      -1.07027552      -1.54314214
H       -0.77141046      -3.02227552      -2.49014214
H       -0.86141046       1.31972448      -1.82014214
H       -2.57341046       2.72572448      -0.51614214
H       -2.56441046      -2.32027552       1.32885786
H       -4.44641046       2.29572448       1.55385786
H       -4.33841046      -1.75827552       2.94585786
H       -5.25841046       0.51672448       3.06385786
H       -1.93745046      -1.73122552      -2.80639214
H       -2.19627046      -2.96826552      -1.46321214
