30
Properties=species:S:1:pos:R:3 pbc="F F F"
C        1.52797491      -3.29109086      -0.76330592
C       -0.17002509       0.08990914      -1.25530592
C        0.02897491      -1.27009086      -1.01830592
C        0.92797491       0.91790914      -1.47630592
C        1.31397491      -1.81109086      -0.98630592
C        2.20997491       0.38590914      -1.45930592
C        2.39697491      -0.97209086      -1.22730592
O        0.75497491       2.25090914      -1.70830592
H       -1.17002509       0.49890914      -1.25630592
H       -0.80502509      -1.90409086      -0.78830592
H       -0.17002509       2.50590914      -1.64330592
H        3.04997491       1.04290914      -1.60230592
H        2.55297491      -3.55709086      -1.00330592
H        0.88197491      -3.79409086      -1.46530592
H        3.39497491      -1.37709086      -1.21830592
H        1.27676491      -3.69678086       0.22781108
C       -1.78502509       0.67690914       2.11669408
C       -2.93002509      -0.33909086       1.94569408
C       -2.18902509       2.04990914       1.58969408
C       -1.33202509       0.75490914       3.58169408
H       -0.94202509       0.32490914       1.51969408
H       -3.12602509      -0.42209086       0.87569408
H       -2.92802509       2.51490914       2.24369408
H       -1.31602509       2.69990914       1.52469408
H       -2.61102509       1.95390914       0.58969408
H       -2.11302509       1.20790914       4.19369408
H       -1.12702509      -0.23809086       3.97569408
H       -3.85595509      -0.01944086       2.44617608
H       -2.57653509      -1.32251086       2.28910008
H       -0.39561509       1.31472914       3.72219208
