30
Properties=species:S:1:pos:R:3 pbc="F F F"
C        0.73465418      -0.13306532      -4.52183920
C       -0.37734582      -0.40106532      -0.93583920
C        0.51665418       0.10793468      -1.91683920
C        0.10165418      -0.41306532      -3.18983920
C       -0.99134582      -1.18706532      -2.94383920
C       -0.25534582      -0.09606532       0.41516080
C        0.78365418       0.73893468       0.79816080
C        1.68065418       1.26093468      -0.14883920
C        1.55665418       0.95293468      -1.50383920
N       -1.28234582      -1.18806532      -1.59883920
H       -0.95534582      -0.50206532       1.13116080
H        0.91365418       0.99593468       1.83816080
H       -2.01334582      -1.75106532      -1.15383920
H        2.47965418       1.91293468       0.17516080
H       -1.54534582      -1.72806532      -3.70083920
H        2.25265418       1.34893468      -2.22883920
H        0.65265418      -1.02806532      -5.13883920
H        1.79365418       0.06593468      -4.36783920
H        0.26737418       0.70875468      -5.05381920
C       -0.58334582       0.24093468       4.20816080
C        0.40665418      -0.43806532       5.15616080
C       -1.92234582       0.65393468       4.80316080
H       -0.11034582       1.13993468       3.80816080
H       -0.77834582      -0.44406532       3.38216080
H       -0.02534582      -1.37906532       5.50216080
H       -2.46834582      -0.21406532       5.15116080
H       -1.76234582       1.34393468       5.63116080
H        0.64716418       0.21733468       6.00622080
H        1.32008418      -0.66967532       4.58871080
H       -2.51985582       1.15354468       4.02639080
