24
Properties=species:S:1:pos:R:3 pbc="F F F"
C        0.29610841       2.92205497       0.58288993
C       -0.40389159      -0.12094503      -1.58911007
C       -1.80189159      -0.19194503      -1.55411007
C        0.26510841       0.89205497      -0.89111007
C       -0.44689159       1.83905497      -0.16711007
C       -2.52489159       0.75105497      -0.82811007
C       -1.84689159       1.76805497      -0.14511007
H        0.15910841      -0.85194503      -2.15211007
H       -2.31689159      -0.97194503      -2.09811007
H        1.34610841       0.93405497      -0.92011007
H       -3.60389159       0.71005497      -0.79711007
H       -0.34289159       3.80505497       0.60888993
H        1.18810841       3.20305497       0.02488993
H       -2.41789159       2.50905497       0.39488993
H        0.57092841       2.65435497       1.61381993
C        1.49110841      -1.99694503       0.92488993
C        0.94810841      -2.62194503       2.20788993
O        2.84910841      -2.35794503       0.74388993
H        0.89910841      -2.32794503       0.07188993
H        1.42510841      -0.91094503       1.00288993
H        0.82810841      -3.68694503       2.02288993
H        3.31210841      -1.59894503       0.32888993
H       -0.01733159      -2.16744503       2.47501993
H        1.69805841      -2.48683503       3.00118993
