20
Properties=species:S:1:pos:R:3 pbc="F F F"
C        1.40676423      -2.59206140       0.72501461
C        0.98676423      -1.39006140      -0.15098539
O       -0.12523577      -1.38706140      -0.69898539
N        1.85276423      -0.36206140      -0.29298539
H        2.23576423      -2.29706140       1.36901461
H        1.77676423      -3.37406140       0.06201461
H        1.54276423       0.43893860      -0.85098539
H        2.76276423      -0.38506140       0.14001461
H        0.59701423      -3.00894940       1.34186461
C       -0.84823577       1.76593860       0.28601461
C       -1.90323577       2.22993860       1.28101461
C       -1.40123577       1.68893860      -1.12798539
H       -0.03323577       2.49093860       0.30401461
H       -0.46423577       0.79993860       0.60001461
H       -2.26323577       3.20293860       0.95501461
H       -2.06523577       0.82493860      -1.20098539
H       -2.00023577       2.58193860      -1.30698539
H       -1.47990577       2.31039460       2.29310461
H       -2.75526577       1.53518160       1.31780461
H       -0.64987577       1.63780660      -1.92976539
