23
Properties=species:S:1:pos:R:3 pbc="F F F"
C       -2.09619394       0.89393824      -1.53170603
C       -2.83519394       2.00193824      -0.80370603
H       -2.70919394      -0.00606176      -1.55370603
H       -1.88319394       1.19693824      -2.55570603
H       -1.16319394       0.67293824      -1.02070603
H       -3.74719394       2.17793824      -1.37370603
H       -3.09054394       1.69983824       0.22271397
H       -2.23859394       2.92594824      -0.82043603
C        1.81680606       1.71893824       0.11229397
C        1.21480606       0.36393824       0.28729397
C        0.45680606       0.06193824       1.41929397
C        1.36180606      -0.59306176      -0.70170603
C       -0.11819394      -1.17906176       1.57329397
C        0.76880606      -1.83306176      -0.56170603
C        0.01980606      -2.12906176       0.58629397
H        1.16980606       2.44893824       0.59929397
H        1.82480606       1.96293824      -0.95070603
H        0.32080606       0.80793824       2.19129397
H        1.92380606      -0.37106176      -1.59570603
H       -0.69619394      -1.40306176       2.45529397
H        0.87680606      -2.57606176      -1.34070603
H       -0.44119394      -3.10106176       0.69729397
H        2.83190606       1.82807824       0.52175397
