30
Properties=species:S:1:pos:R:3 pbc="F F F"
C       -0.98627624      -2.73153601       3.53149318
C        0.46372376      -0.23153601       1.11649318
C       -0.47027624      -1.24953601       1.42749318
C       -0.23127624      -1.67053601       2.78149318
C        0.79872376      -0.90853601       3.22949318
C       -0.40227624      -0.05353601      -1.08250682
C        0.50572376       0.38046399      -0.12750682
C       -1.32327624      -1.06753601      -0.80450682
C       -1.36527624      -1.66753601       0.43649318
N        1.23172376      -0.05153601       2.23749318
H       -0.39527624       0.38246399      -2.06550682
H        1.21972376       1.16046399      -0.33750682
H       -2.00427624      -1.39553601      -1.57150682
H       -2.08827624      -2.44153601       0.64349318
H        1.99472376       0.61046399       2.34449318
H        1.23572376      -0.97253601       4.21649318
H       -0.41127624      -3.65153601       3.52549318
H       -1.88927624      -2.91853601       2.95649318
H       -1.25801624      -2.43594601       4.55559318
C        0.12272376       2.37546399      -4.04850682
C       -0.06427624       3.88046399      -4.33650682
C        1.44672376       2.08646399      -3.32350682
H       -0.71027624       2.02946399      -3.44050682
H        0.10872376       1.79946399      -4.96750682
H        0.86972376       4.28246399      -4.72950682
H        1.43972376       2.50946399      -2.32050682
H        1.59072376       1.00946399      -3.24250682
H        2.27972376       2.50746399      -3.88550682
H       -0.86346624       4.04890399      -5.07333882
H       -0.29763624       4.40856399      -3.40020682
