16
Properties=species:S:1:pos:R:3 pbc="F F F"
C        0.08144795       0.03136597       2.05275160
C        0.68944795      -1.11663403       2.84975160
H       -0.92555205       0.25036597       2.40975160
H        0.69944795       0.92336597       2.17275160
H        0.05144795      -0.20963403       0.99175160
H        1.67744795      -1.32563403       2.43875160
H        0.08316795      -2.03285603       2.79535160
H        0.80869795      -0.81204903       3.89999160
C       -0.52655205       0.54936597      -1.69924840
C       -0.24355205       0.53436597      -3.20424840
H        0.31644795       0.99236597      -1.16624840
H       -1.41955205       1.14536597      -1.50124840
H       -0.70055205      -0.46363403      -1.33924840
H       -1.10555205       0.08036597      -3.68524840
H        0.63918795      -0.08785603      -3.41309140
H       -0.13407205       1.55813697      -3.59142540
