17
Properties=species:S:1:pos:R:3 pbc="F F F"
C       -0.06692559       0.47854023      -2.23236895
C        0.61207441       0.27254023      -3.57736895
H       -0.70992559      -0.36845977      -2.00236895
H        0.69007441       0.55554023      -1.45336895
H       -0.65892559       1.39254023      -2.24836895
H        1.11807441      -0.68745977      -3.53736895
H       -0.11881259       0.26966823      -4.39943695
H        1.37757241       1.03803823      -3.77236795
C        0.79207441       0.19454023       2.52663105
C       -0.19992559      -0.14345977       1.43463105
O       -1.07492559       0.63654023       1.06263105
N       -0.08592559      -1.36445977       0.91563105
H        1.73907441      -0.27445977       2.26063105
H        0.44707441      -0.25245977       3.46063105
H       -0.73792559      -1.64045977       0.19763105
H        0.61207441      -2.00745977       1.25663105
H        0.94522841       1.27380723       2.67403105
