20
Properties=species:S:1:pos:R:3 pbc="F F F"
C        1.38113943       1.87445825       1.12993651
C        0.58513943       0.62145825       1.41693651
O        1.05813943      -0.51154175       1.26793651
N       -0.66686057       0.81045825       1.78793651
H        0.96113943       2.71045825       1.69293651
H        1.30013943       2.09345825       0.07293651
H       -1.22786057      -0.00054175       2.00093651
H       -1.03486057       1.74245825       1.91093651
H        2.43926943       1.75745825       1.40682451
C       -0.62886057      -0.44354175      -2.00506349
C        0.30213943      -1.60754175      -2.33706349
C       -1.95786057      -0.75254175      -1.31206349
H       -0.06186057       0.25145825      -1.38506349
H       -0.86386057       0.09245825      -2.92806349
H       -0.27286057      -2.40054175      -2.81606349
H       -1.76486057      -1.39854175      -0.45506349
H        0.78303943      -1.98939175      -1.42441369
H        1.04047943      -1.25098175      -3.07035849
H       -2.39832057       0.18451825      -0.94069449
H       -2.63502057      -1.26850175      -2.00865219
