19
Properties=species:S:1:pos:R:3 pbc="F F F"
C        1.58846749      -0.90825807      -2.84851174
C        0.45646749      -1.62625807      -2.10251174
O        0.06046749      -1.20025807      -0.99751174
O       -0.01153251      -2.67125807      -2.61951174
H        1.33346749      -0.80925807      -3.90351174
H        2.46846749      -1.55425807      -2.80851174
H        1.88663749       0.06405193      -2.42934174
C        0.30146749       0.45874193       1.76648826
C        1.40846749       0.65174193       2.78048826
C       -2.17653251       1.23374193       0.71448826
S       -0.73453251       1.90974193       1.54948826
H        0.76446749       0.22774193       0.81148826
H       -0.32553251      -0.37925807       2.06248826
H        0.98646749       1.00274193       3.71648826
H        2.08546749       1.40674193       2.41548826
H       -2.63653251       0.47074193       1.34148826
H       -2.89653251       2.03074193       0.52748826
H       -1.87653251       0.78674193      -0.23451174
H        1.98871749      -0.27089807       2.92897826
