15
Properties=species:S:1:pos:R:3 pbc="F F F"
C       -1.33551969       1.48146405      -2.64421563
O       -0.72951969       1.69446405      -1.36121563
H       -0.97551969       2.58746405      -1.07721563
H       -1.18351969       2.37346405      -3.25321563
H       -0.85213969       0.63010405      -3.14574563
H       -2.41880969       1.31132405      -2.55735563
C        1.20748031      -1.40953595       2.26578437
C        0.53548031      -0.91153595       1.00078437
O        0.40348031      -1.63053595       0.01178437
N        0.11948031       0.35546405       1.02578437
H       -0.24451969       0.75046405       0.16378437
H        0.26748031       0.92946405       1.84078437
H        0.58148031      -1.09953595       3.10378437
H        2.17948031      -0.92753595       2.38278437
H        1.30576031      -2.50485595       2.29071437
