20
Properties=species:S:1:pos:R:3 pbc="F F F"
C       -2.24288864      -2.69275179      -1.96714833
C       -1.24388864      -1.80375179      -1.22114833
O       -1.20688864      -1.89375179       0.03385167
O       -0.49688864      -1.03275179      -1.85614833
H       -3.21688864      -2.61875179      -1.48014833
H       -1.89088864      -3.72075179      -1.87814833
H       -2.34159864      -2.42110979      -3.02849833
C        1.32211136       2.78124821       2.48685167
C        0.97411136       1.16024821       0.63585167
N       -0.03588864       0.56724821       1.24585167
N        1.59611136       2.18724821       1.17485167
N        1.34711136       0.73824821      -0.54914833
H       -0.35288864       0.90224821       2.13985167
H       -0.52588864      -0.19275179       0.77285167
H        2.39811136       2.55324821       0.65785167
H        2.11911136       1.20124821      -1.00314833
H        0.79011136       0.02824821      -1.02914833
H        2.24611136       3.24124821       2.84385167
H        1.06611136       2.00324821       3.20885167
H        0.53742136       3.55209821       2.49414167
