22
Properties=species:S:1:pos:R:3 pbc="F F F"
C        0.70784370      -1.16722180       2.64491568
C        1.50284370      -1.72022180       1.47391568
O        1.51484370      -1.17822180       0.36391568
N        2.18284370      -2.83522180       1.70191568
H        1.32284370      -1.24322180       3.54391568
H       -0.15715630      -1.81922180       2.78391568
H        2.71484370      -3.23122180       0.94091568
H        2.13884370      -3.29322180       2.59891568
H        0.35915370      -0.13060780       2.52723418
C       -2.28515630       3.03277820      -1.56508432
C       -0.93615630       0.97077820      -1.16308432
N       -0.79115630      -0.34822180      -1.12308432
N       -2.06015630       1.59177820      -1.48008432
N        0.09284370       1.70777820      -0.85108432
H       -1.56015630      -0.95022180      -1.38108432
H        0.09084370      -0.75822180      -0.83008432
H       -2.83915630       0.99777820      -1.72908432
H        0.04584370       2.71677820      -0.90708432
H        0.97984370       1.25877820      -0.68708432
H       -3.19815630       3.19177820      -2.14408432
H       -1.47915630       3.51777820      -2.11908432
H       -2.42099630       3.53109120      -0.59388232
