22
Properties=species:S:1:pos:R:3 pbc="F F F"
C        1.69164920       0.92495472       0.41939004
C        2.30264920       1.62495472      -0.78560996
C        2.67464920       0.36995472       1.36339004
H        1.10164920       1.65595472       0.97539004
H        1.01464920       0.13595472       0.10639004
H        3.05564920       2.32395472      -0.42060996
H        3.36864920       1.14695472       1.68439004
H        2.15164920      -0.01304528       2.24039004
H        3.22464920      -0.45404528       0.91239004
H        2.79902820       0.91450472      -1.46300996
H        1.52275420       2.20987472      -1.29514996
C       -1.58035080      -0.84004528      -0.45260996
C       -2.22535080      -2.16504528      -0.82060996
N       -2.51535080       0.07595472       0.23339004
H       -0.73035080      -1.03904528       0.20739004
H       -1.19335080      -0.37404528      -1.36560996
H       -2.98635080      -1.97804528      -1.58160996
H       -2.72635080      -2.59204528       0.05139004
H       -2.86635080      -0.32704528       1.09539004
H       -2.07235080       0.95595472       0.47239004
H       -3.31735080       0.29095472      -0.34760996
H       -1.51083380      -2.89671528      -1.22573996
