20
Properties=species:S:1:pos:R:3 pbc="F F F"
C        0.39649244      -1.41055132      -2.12695925
C        1.64449244      -1.19855132      -2.98595925
H       -0.14850756      -0.47055132      -2.02795925
H       -0.26050756      -2.14055132      -2.59795925
H        0.67349244      -1.76055132      -1.13295925
H        2.16749244      -2.14755132      -3.06995925
H        2.30956244      -0.44838132      -2.53328025
H        1.35800244      -0.90049132      -4.00531225
C       -2.48150756      -0.15355132       1.07704075
C       -1.06750756       0.32144868       0.97004075
C       -0.54550756       1.38644868       0.31104075
C        1.10949244       0.28744868       1.25104075
N       -0.01250756      -0.36355132       1.53804075
N        0.81449244       1.35144868       0.51304075
H       -3.15850756       0.69444868       0.98304075
H       -2.60950756      -0.56455132       2.08004075
H       -1.09850756       2.13344868      -0.22595925
H        2.10249244      -0.04355132       1.50404075
H        1.49549244       1.99044868       0.10904075
H       -2.72630756      -0.92683132       0.33400075
