34
Properties=species:S:1:pos:R:3 pbc="F F F"
C        0.39530499      -1.48349278      -3.92194498
C       -0.82569501       1.79850722      -2.46794498
C        0.37630499       2.41450722      -2.15094498
C       -0.82769501       0.53950722      -3.03594498
C        0.36630499      -0.14249278      -3.23894498
C        1.56630499       1.74450722      -2.37494498
C        1.56130499       0.48350722      -2.91594498
H       -1.75769501       2.31650722      -2.29394498
H        0.38730499       3.41050722      -1.73294498
H       -1.76169501       0.09550722      -3.33194498
H        2.50530499       2.22250722      -2.13194498
H        1.42630499      -1.83649278      -3.95794498
H        0.07230499      -1.34649278      -4.95094498
H        2.50130499      -0.01149278      -3.10094498
H       -0.20887501      -2.27853278      -3.46056498
C       -2.89669501       0.54050722       1.13105502
C       -0.45069501      -0.22849278       1.71905502
C       -1.88269501      -0.25749278       1.87505502
C        0.09730499      -1.11749278       2.67305502
C       -2.13369501      -1.15749278       2.84305502
C        0.42330499       0.47150722       0.89105502
C        1.79830499       0.28150722       1.04005502
C        2.30330499      -0.61249278       1.98405502
C        1.46430499      -1.32549278       2.81505502
N       -0.96069501      -1.68949278       3.32005502
H        0.03730499       1.14550722       0.14505502
H        2.47630499       0.84450722       0.41405502
H        3.37430499      -0.73849278       2.06805502
H       -2.43869501       1.49850722       0.89405502
H       -3.74469501       0.74150722       1.78905502
H       -3.12369501      -1.40749278       3.18905502
H       -0.88169501      -2.49249278       3.94005502
H        1.84230499      -2.01549278       3.55405502
H       -3.26203501       0.10380722       0.18987502
