23
Properties=species:S:1:pos:R:3 pbc="F F F"
C       -2.63700128       1.54688558       1.93885046
C        0.23899872      -1.03311442       0.08785046
C        0.50899872      -0.47811442       1.32285046
C       -0.93500128      -0.73311442      -0.56414954
C       -0.41700128       0.37788558       1.91985046
C       -1.86800128       0.08688558       0.03585046
C       -1.61100128       0.66388558       1.28485046
H        0.93699872      -1.72911442      -0.35114954
H        1.42999872      -0.72511442       1.83385046
H       -1.14400128      -1.17811442      -1.52614954
H       -0.20300128       0.80488558       2.88985046
H       -2.80800128       0.27988558      -0.46114954
H       -3.27000128       2.00688558       1.17785046
H       -2.10600128       2.34088558       2.45185046
H       -3.26171128       1.01483558       2.67142046
C        3.22199872      -0.27611442      -1.96114954
C        2.84699872      -0.24911442      -3.43514954
H        2.94999872       0.67088558      -1.49814954
H        2.67499872      -1.07211442      -1.46914954
H        4.28499872      -0.47611442      -1.82814954
H        3.20399872      -1.17811442      -3.87914954
H        3.31545172       0.59612558      -3.96062954
H        1.75351472      -0.23527442      -3.55389954
