16
Properties=species:S:1:pos:R:3 pbc="F F F"
C        1.51116473      -1.12538675      -0.26218930
C        2.44316473      -1.09938675       0.94981070
H        0.45316473      -1.05238675      -0.06818930
H        1.79216473      -0.31238675      -0.93218930
H        1.67116473      -2.06238675      -0.79618930
H        2.47616473      -0.09338675       1.36881070
H        3.44116473      -1.36938675       0.60481070
H        2.08841473      -1.80530675       1.71520970
C       -1.99783527       0.35261325      -0.38918930
C       -1.95583527       1.87861325      -0.29118930
H       -1.38483527       0.00661325      -1.22418930
H       -1.67683527      -0.11938675       0.53381070
H       -3.01183527      -0.01338675      -0.53118930
H       -2.45583527       2.16761325       0.62981070
H       -2.48732767       2.34889025      -1.13163930
H       -0.91342127       2.22800525      -0.25516930
