26
Properties=species:S:1:pos:R:3 pbc="F F F"
C        4.09299662       0.22104100      -0.75167000
C       -0.19100338       0.18504100      -1.00967000
C        0.56699662       0.61504100      -2.11267000
C        0.45199662      -0.22495900       0.15433000
C        1.96799662       0.62304100      -2.03067000
C        1.85299662      -0.21795900       0.21733000
C        2.60799662       0.20204100      -0.86267000
H       -1.27200338       0.16904100      -1.05767000
H        0.06899662       0.93804100      -3.01967000
H       -0.12600338      -0.54995900       1.00733000
H        2.56099662       0.95704100      -2.87067000
H        2.36299662      -0.53795900       1.11433000
H        4.48599662       0.03104100      -1.74567000
H        4.37699662      -0.60595900      -0.09667000
H        4.48487662       1.17784100      -0.37624000
C       -3.04900338      -0.18195900       1.56733000
C       -4.43700338      -0.58595900       1.04833000
C       -2.91800338      -0.47495900       3.06933000
H       -2.29100338      -0.73995900       1.02233000
H       -2.90100338       0.88404100       1.39333000
H       -5.19000338      -0.19195900       1.73333000
H       -3.16600338      -1.52095900       3.25733000
H       -1.88800338      -0.29395900       3.37233000
H       -4.52652238      -1.68124900       1.00019000
H       -4.66450738      -0.11811900       0.07912000
H       -3.58763238       0.17164100       3.65544000
