16
Properties=species:S:1:pos:R:3 pbc="F F F"
C        1.76226258       2.39668836       1.22991832
C        1.78526258       0.92368836       0.87391832
O        2.40026258       0.57368836      -0.15808168
O        1.19226258       0.11168836       1.62391832
H        1.84426258       3.01268836       0.33191832
H        2.64526258       2.59168836       1.83991832
H        0.85756258       2.67594236       1.78986532
C       -2.35173742      -2.13031164      -0.15908168
C       -1.79173742      -0.96731164      -0.96608168
O       -2.12973742      -0.77931164      -2.13208168
N       -0.92873742      -0.17531164      -0.35108168
H       -0.52773742       0.58668836      -0.88308168
H       -0.54373742      -0.39131164       0.56191832
H       -3.32773742      -1.82831164       0.22291832
H       -1.69673742      -2.33131164       0.69091832
H       -2.46181742      -3.04329164      -0.76269768
