21
Properties=species:S:1:pos:R:3 pbc="F F F"
C        0.84911725      -1.21120087      -1.51919237
C        2.06011725      -0.77120087      -2.32119237
C       -0.18188275      -1.95320087      -2.36619237
H        1.14911725      -1.76620087      -0.65719237
H        0.37711725      -0.30520087      -1.13819237
H        1.84111725       0.15879913      -2.84819237
H        2.30611725      -1.54720087      -3.04619237
H       -0.66788275      -1.24820087      -3.05119237
H        0.34811725      -2.69420087      -2.97519237
H        2.91277525      -0.63824087      -1.63906537
H       -0.92352575      -2.46230087      -1.73311837
C       -1.16188275      -0.09920087       1.29480763
C       -0.05788275      -1.07820087       1.68280763
C       -0.65388275       1.33079913       1.14380763
O        0.23711725       1.74679913       1.91180763
O       -1.15688275       2.04479913       0.24880763
H       -1.58588275      -0.42620087       0.34480763
H       -1.96588275      -0.13420087       2.03380763
H        0.91111725      -0.71420087       1.33980763
H       -0.26588275      -2.01520087       1.16780763
H       -0.01033475      -1.32026087       2.75478963
