24
Properties=species:S:1:pos:R:3 pbc="F F F"
C        0.91670819       2.90613064      -0.28358039
C        0.81970819       0.40613064       0.07941961
C        0.47770819       1.52813064      -0.69258039
C        0.45270819      -0.87886936      -0.31358039
C       -0.28629181       1.32913064      -1.83958039
C       -0.26629181      -1.07086936      -1.49858039
C       -0.65929181       0.03213064      -2.22958039
O       -0.69429181      -2.29386936      -1.93358039
H        1.39470819       0.53613064       0.98741961
H        0.72970819      -1.73686936       0.27641961
H        1.68870819       3.22713064      -0.97858039
H        1.38370819       2.82413064       0.68941961
H       -0.58229181       2.17713064      -2.44058039
H       -1.25729181      -0.11386936      -3.10758039
H       -1.24129181      -2.23286936      -2.71958039
H        0.14593119       3.69064064      -0.26261039
C        0.20270819      -0.20286936       3.81941961
C       -0.78129181      -1.31286936       4.15541961
H       -0.26429181       0.52113064       3.14941961
H        0.51670819       0.30113064       4.73341961
H        1.08270819      -0.62886936       3.33641961
H       -0.24829181      -2.01186936       4.79941961
H       -1.13024981      -1.82515936       3.24668961
H       -1.64123881      -0.92294936       4.71973961
