20
Properties=species:S:1:pos:R:3 pbc="F F F"
C        3.12846324      -0.55617906       2.25676198
C        1.91546324      -0.74717906       0.09176198
N        0.87446324      -0.06517906       0.54976198
N        2.97246324      -1.00317906       0.86776198
N        1.91946324      -1.14017906      -1.17023802
H        0.87146324       0.30782094       1.48876198
H        0.00646324       0.01982094       0.01776198
H        3.72246324      -1.56717906       0.45976198
H        2.72846324      -1.66317906      -1.52123802
H        1.13346324      -0.95617906      -1.76623802
H        2.16246324      -0.39317906       2.73576198
H        3.67746324       0.38682094       2.26776198
H        3.68605324      -1.29534906       2.85066498
C       -4.07253676       0.74282094      -0.26823802
C       -2.61653676       0.88982094      -0.65723802
O       -1.75353676       0.15782094      -0.11023802
O       -2.35353676       1.71982094      -1.54923802
H       -4.59053676       0.27982094      -1.10923802
H       -4.51753676       1.72282094      -0.10523802
H       -4.21840676       0.12181094       0.62789998
