23
Properties=species:S:1:pos:R:3 pbc="F F F"
C        2.72390576      -1.25418695      -0.20501701
C       -0.68909424       0.79081305       1.60398299
C       -0.39209424      -0.52318695       1.93098299
C        0.11090576       1.43581305       0.66898299
C        0.71290576      -1.16718695       1.32098299
C        1.22790576       0.78281305       0.04598299
C        1.53190576      -0.52918695       0.38798299
H       -1.52409424       1.30381305       2.06298299
H       -1.00809424      -1.03718695       2.65398299
H       -0.15109424       2.43481305       0.43798299
H        0.95490576      -2.18918695       1.57098299
H        1.83990576       1.29481305      -0.68801701
H        3.31790576      -1.62918695       0.62998299
H        3.31090576      -0.51818695      -0.75501701
H        2.45826576      -2.07538695      -0.88696701
C       -2.04709424       0.43281305      -1.79201701
C       -2.74209424       0.09781305      -3.14401701
H       -1.34309424      -0.35218695      -1.52601701
H       -1.51009424       1.37881305      -1.87101701
H       -2.79609424       0.51481305      -1.00301701
H       -2.02309424       0.03581305      -3.96501701
H       -3.27747424      -0.85908695      -3.05573701
H       -3.45771424       0.90731305      -3.35030701
