19
Properties=species:S:1:pos:R:3 pbc="F F F"
C       -2.14092590       0.51379856      -1.20805245
C       -1.80892590       0.89979856      -2.64505245
H       -3.09292590       0.95679856      -0.91105245
H       -2.21492590      -0.57220144      -1.13005245
H       -1.35992590       0.85379856      -0.53005245
H       -0.84392590       0.47479856      -2.92505245
H       -1.77645390       1.99446856      -2.74824145
H       -2.59206090       0.49163856      -3.30087945
C        0.80507410      -0.49920144       0.94094755
C        1.64207410       0.76379856       0.87394755
N        1.38407410      -1.51520144       1.85294755
H       -0.19192590      -0.22720144       1.30694755
H        0.68607410      -0.91420144      -0.06705245
H        1.90607410       1.07879856       1.88494755
H        1.02307410       1.55279856       0.44194755
H        1.44407410      -1.16820144       2.80494755
H        0.81307410      -2.35320144       1.87694755
H        2.31407410      -1.80020144       1.56494755
H        2.55856410       0.69027856       0.27009215
