20
Properties=species:S:1:pos:R:3 pbc="F F F"
C        0.26093781      -3.72963550      -1.60229324
C        0.04393781      -2.37763550      -0.93629324
O        1.03993781      -1.75163550      -0.51129324
O       -1.11906219      -1.92763550      -0.84629324
H        0.95593781      -3.58463550      -2.43029324
H       -0.67806219      -4.10163550      -2.01629324
H        0.68365781      -4.47101850      -0.90827924
C       -0.39406219       2.87236450       2.49870676
C        0.03493781       1.73236450       0.35170676
N        0.57393781       0.69936450       0.97570676
N       -0.42806219       2.76936450       1.03770676
N       -0.04806219       1.71936450      -0.96329324
H        0.73493781       0.72736450       1.96570676
H        0.84593781      -0.13063550       0.44070676
H       -0.80806219       3.55036450       0.52070676
H       -0.39806219       2.52436450      -1.46229324
H        0.37493781       0.96136450      -1.47929324
H       -0.60406219       3.90336450       2.79170676
H        0.59593781       2.61336450       2.87970676
H       -1.16002219       2.21613360       2.93763776
