26
Properties=species:S:1:pos:R:3 pbc="F F F"
C       -2.41700693      -0.80068506      -1.71710931
C        0.93099307      -1.31668506      -0.06010931
C        0.54899307      -1.46968506       1.24789069
C       -0.03600693      -1.09468506      -1.00510931
C       -1.38100693      -1.03068506      -0.66410931
C       -0.79200693      -1.43668506       1.59689069
C       -1.75900693      -1.20268506       0.64989069
H        1.97599307      -1.36768506      -0.33910931
H        1.29699307      -1.64768506       2.00889069
H        0.26099307      -0.98068506      -2.03710931
H       -1.07700693      -1.58668506       2.62889069
H       -3.25900693      -1.44668506      -1.52110931
H       -2.00200693      -1.10268506      -2.68110931
H       -2.80200693      -1.17268506       0.93389069
H       -2.74454693       0.24729234      -1.78390931
C        2.04899307       2.24231494       0.00589069
C        1.10699307       2.40831494      -1.17310931
C        1.46299307       2.78131494       1.31389069
H        2.24599307       1.17731494       0.13389069
H        3.00099307       2.73631494      -0.20110931
H        0.14999307       1.95131494      -0.91310931
H        1.45299307       3.87231494       1.28589069
H        0.43199307       2.43731494       1.40089069
H        1.51150307       1.91416394      -2.06875731
H        0.97022307       3.47855594      -1.38730231
H        1.99561307       2.45084894       2.21783369
