18
Properties=species:S:1:pos:R:3 pbc="F F F"
C        1.13786550       1.32938486      -1.90602819
C       -0.10913450       1.19738486      -1.05802819
O       -0.25013450       1.93938486      -0.05402819
O       -0.93713450       0.32038486      -1.39902819
H        0.84586550       1.22738486      -2.95402819
H        1.83586550       0.52138486      -1.67902819
H        1.62654550       2.30674486      -1.77970819
C       -0.16813450      -1.34761514       1.02697181
C        1.33186550      -1.43561514       1.29097181
C       -1.02213450      -1.99761514       2.09897181
H       -0.45513450      -0.30561514       1.00897181
H       -0.38513450      -1.81561514       0.06597181
H        1.85386550      -0.96361514       0.45697181
H        1.61786550      -2.48961514       1.30797181
H       -0.79113450      -3.06561514       2.11897181
H       -0.80813450      -1.58261514       3.08497181
H        1.65409550      -0.96267514       2.23038181
H       -2.09544450      -1.87843514       1.88970181
