18
Properties=species:S:1:pos:R:3 pbc="F F F"
C        0.04683557      -0.11144596       2.46622062
C        0.67383557       1.16455404       1.93822062
O        0.86583557       1.32155404       0.73522062
N        0.99983557       2.08455404       2.83022062
H        0.80283557      -0.66744596       3.02222062
H       -0.27816443      -0.71444596       1.63822062
H        1.43683557       2.93155404       2.49622062
H        0.93483557       1.90455404       3.82022062
H       -0.81551443       0.08346404       3.12071062
C       -0.89916443      -2.08444596      -0.95077938
C       -0.66316443      -1.11944596      -2.08377938
O       -0.92316443      -1.43544596      -3.24177938
N       -0.16716443       0.06755404      -1.76877938
H        0.00883557       0.72255404      -2.51477938
H        0.05883557       0.31455404      -0.81177938
H       -0.40416443      -1.73244596      -0.06277938
H       -0.41016443      -3.02244596      -1.21877938
H       -1.96598443      -2.28949596      -0.77799938
