34
Properties=species:S:1:pos:R:3 pbc="F F F"
C        3.29013463      -1.65671536      -0.64117112
C        1.00513463      -2.42571536      -1.35117112
C        2.03913463      -2.45971536      -0.42117112
C       -0.16186537      -3.16271536      -1.14517112
C       -0.31286537      -3.93871536       0.00582888
C        1.89113463      -3.23571536       0.72482888
C        0.72013463      -3.98071536       0.93982888
H        1.10513463      -1.82271536      -2.23817112
H       -0.96286537      -3.11471536      -1.86817112
H        3.70613463      -1.35871536       0.32282888
H        3.00113463      -0.73871536      -1.15917112
H       -1.22186537      -4.50071536       0.16182888
H        2.68113463      -3.26671536       1.46282888
H        0.61913463      -4.57471536       1.83582888
H        4.06355463      -2.16800536      -1.23311812
C       -2.13286537       1.50028464      -2.45417112
C       -0.94586537       1.72628464      -0.10917112
C       -1.70686537       2.23428464      -1.22617112
C       -0.76386537       2.80028464       0.79882888
C       -1.94086537       3.53728464      -0.95817112
C       -0.38686537       0.48028464       0.22482888
C        0.32013463       0.34828464       1.43282888
C        0.48013463       1.43528464       2.30082888
C       -0.06886537       2.66628464       1.99382888
N       -1.39586537       3.88128464       0.24982888
H       -0.50986537      -0.37171536      -0.42217112
H        0.75213463      -0.60971536       1.69282888
H        1.04213463       1.31028464       3.21682888
H       -2.56786537       2.22028464      -3.14917112
H       -2.91686537       0.79428464      -2.17717112
H       -2.48486537       4.21428464      -1.61017112
H       -1.42386537       4.81428464       0.64282888
H        0.05513463       3.51528464       2.64782888
H       -1.33096537       0.95301464      -2.97132012
