23
Properties=species:S:1:pos:R:3 pbc="F F F"
C        0.64935629      -1.31839924      -0.07318940
C        1.71835629      -2.01339924      -0.92318940
C        0.92835629       0.13460076       0.20081060
C        0.26235629       1.23660076      -0.23018940
C        1.92135629       1.90360076       1.04781060
N        1.95735629       0.58060076       1.00281060
N        0.90035629       2.33060076       0.31381060
H       -0.29764371      -1.37039924      -0.60618940
H        0.54035629      -1.84739924       0.87081060
H        2.02335629      -1.34139924      -1.71918940
H       -0.62464371       1.23460076      -0.85218940
H        2.56935629       2.51760076       1.65781060
H        0.52435629       3.26860076       0.37281060
H        1.30633629      -2.93496924      -1.36015940
H        2.57852629      -2.28278924      -0.29268940
C       -3.05164371      -1.35339924      -0.65518940
C       -4.56564371      -1.12839924      -0.45718940
H       -2.64864371      -1.98839924       0.13381060
H       -2.87864371      -1.84039924      -1.61618940
H       -2.52864371      -0.39739924      -0.64018940
H       -4.93864371      -0.49939924      -1.26618940
H       -4.75752371      -0.63586924       0.50748060
H       -5.10837371      -2.08449924      -0.49331940
