22
Properties=species:S:1:pos:R:3 pbc="F F F"
C        1.96870333      -0.48098161      -0.60098659
C        1.94370333      -1.97998161      -0.29898659
C        2.68570333       0.42601839       0.40301341
H        2.45770333      -0.35398161      -1.56598659
H        0.95170333      -0.12498161      -0.71798659
H        1.44970333      -2.12498161       0.66001341
H        3.71470333       0.09101839       0.51501341
H        2.96778633      -2.38057861      -0.27112559
H        1.33364533      -2.49005361      -1.05902359
H        2.70738933       1.45392639       0.01194541
H        2.20120933       0.39492439       1.39007941
C       -1.63829667       0.60601839       0.10401341
C       -2.46829667       1.46401839      -0.83498659
C       -2.46629667      -0.03798161       1.20101341
H       -1.15729667      -0.17498161      -0.47598659
H       -0.88029667       1.23501839       0.56901341
H       -3.08729667       2.13501839      -0.23798659
H       -2.93629667       0.75701839       1.78501341
H       -3.27229667      -0.63398161       0.77701341
H       -3.10939867       0.82970439      -1.46477559
H       -1.80022467       2.09020039      -1.44455659
H       -1.84124967      -0.66885661       1.85010041
