23
Properties=species:S:1:pos:R:3 pbc="F F F"
C       -1.94429174      -2.48111734       1.43613188
C       -3.37829174      -2.92511734       1.54413188
H       -1.28229174      -3.17611734       1.94813188
H       -1.66129174      -2.43011734       0.38613188
H       -1.82629174      -1.49211734       1.87513188
H       -3.97629174      -2.31711734       0.86513188
H       -3.78835174      -2.81904234       2.55931188
H       -3.45046474      -3.97202034       1.21431188
C       -0.69229174       2.73488266      -0.19986812
C        0.06570826       0.38988266       0.29613188
C        0.26070826       1.58388266      -0.36986812
C        0.97970826      -0.65311734       0.13713188
C        1.35570826       1.72088266      -1.20586812
C        2.05270826      -0.50811734      -0.70386812
C        2.25570826       0.66988266      -1.37686812
H       -0.78429174       0.27488266       0.95213188
H        0.83170826      -1.58511734       0.66613188
H       -1.70629174       2.35188266      -0.20086812
H       -0.59929174       3.37588266      -1.07786812
H        1.52370826       2.65188266      -1.72986812
H        2.75470826      -1.31411734      -0.84286812
H        3.10170826       0.77088266      -2.03986812
H       -0.52090474       3.34188266       0.70134188
