19
Properties=species:S:1:pos:R:3 pbc="F F F"
C        0.01492115       0.92674371       1.14429577
C       -1.38707885       1.51774371       1.29529577
C        0.97492115       1.10574371       2.33329577
H       -0.08507885      -0.14125629       0.94429577
H        0.48292115       1.37474371       0.26829577
H       -1.93807885       0.91974371       2.02229577
H        1.05292115       2.16774371       2.54929577
H       -1.89921885       1.50712371       0.32184887
H       -1.32112885       2.55194371       1.66418677
H        0.62925115       0.61863371       3.25700377
H        1.99162115       0.77848371       2.07020777
C        0.46892115      -1.33325629      -1.76370423
C       -0.07707885      -2.15525629      -2.92770423
H        0.00192115      -0.34625629      -1.74970423
H        0.23992115      -1.84425629      -0.82670423
H        1.55092115      -1.23125629      -1.85070423
H        0.37992115      -3.14325629      -2.89070423
H        0.14746115      -1.68091629      -3.89444123
H       -1.16907885      -2.26663629      -2.85604723
