30
Properties=species:S:1:pos:R:3 pbc="F F F"
C       -1.88372203       1.63407540      -2.86654443
C       -2.06272203       3.12107540      -2.77554443
H       -1.54372203       1.25107540      -1.90754443
H       -2.83172203       1.16007540      -3.11054443
H       -1.15072203       1.38607540      -3.63554443
H       -2.82772203       3.33807540      -2.03154443
H       -1.11319203       3.57077540      -2.44972543
H       -2.43636203       3.47344540      -3.74828643
C       -0.32172203      -1.37492460      -1.76854443
C        0.53927797      -2.56492460      -2.18754443
C        0.30027797      -0.50492460      -0.73354443
C        1.16527797       0.50607540      -0.95454443
C        0.13427797      -0.59092460       0.68245557
C        0.90627797       0.44607540       1.25545557
C       -0.60372203      -1.42392460       1.53845557
C        0.97527797       0.64707540       2.62345557
C       -0.52772203      -1.20992460       2.91945557
C        0.24527797      -0.18092460       3.43845557
N        1.55627797       1.06707540       0.23145557
H       -0.54872203      -0.77892460      -2.65154443
H       -1.27172203      -1.75092460      -1.38454443
H       -0.02372203      -3.13192460      -2.92954443
H        1.51827797       0.81307540      -1.93454443
H        2.28927797       1.77007540       0.33945557
H       -1.22672203      -2.20892460       1.13345557
H        1.60327797       1.42407540       3.03445557
H       -1.07872203      -1.85092460       3.59445557
H        0.31927797      -0.05992460       4.51045557
H        0.75493797      -3.20442460      -1.31890643
H        1.45059797      -2.20169460      -2.68509043
