23
Properties=species:S:1:pos:R:3 pbc="F F F"
C        0.56615612      -2.63246586      -1.40670336
C       -1.02184388       0.62853414      -0.30070336
C       -0.73984388      -0.72346586      -0.44670336
C       -0.26984388       1.56753414      -0.99170336
C        0.28315612      -1.16146586      -1.27570336
C        0.78415612       1.14353414      -1.79470336
C        1.05315612      -0.21746586      -1.94870336
H       -1.81884388       0.95253414       0.34929664
H       -1.33384388      -1.44546586       0.09729664
H       -0.49184388       2.62153414      -0.89470336
H        1.38315612       1.87353414      -2.32270336
H        1.15815612      -2.80746586      -2.30670336
H       -0.39184388      -3.13746586      -1.53870336
H        1.86615612      -0.53546586      -2.58870336
H        1.08644612      -3.06531586      -0.53955765
C       -0.06684388       1.19553414       3.02629664
C       -0.56184388       0.29153414       4.15029664
H        0.86215612       1.66853414       3.33529664
H        0.14115612       0.59653414       2.14129664
H       -0.78984388       1.97553414       2.78429664
H        0.23015612      -0.41446586       4.40029664
H       -1.44312388      -0.27668986       3.81793964
H       -0.77267388       0.90018414       5.04197664
