16
Properties=species:S:1:pos:R:3 pbc="F F F"
C       -0.59022430      -0.32171078      -1.64694978
C        0.39777570      -1.38571078      -2.11894978
H       -1.47722430      -0.32071078      -2.28294978
H       -0.89922430      -0.53571078      -0.62694978
H       -0.12422430       0.66228922      -1.66394978
H        1.33977570      -1.25771078      -1.58894978
H        0.56095570      -1.29839078      -3.20326778
H        0.01111570      -2.38914078      -1.88738878
C        0.31477570       1.48528922       1.50305022
C       -0.11222430       0.22228922       2.26105022
H        0.92877570       1.23928922       0.63805022
H       -0.57422430       2.00628922       1.14805022
H        0.86877570       2.14628922       2.17005022
H       -0.56722430      -0.47671078       1.56205022
H       -0.89022430       0.51028922       2.96105022
H        0.70256570      -0.28794078       2.79564222
