18
Properties=species:S:1:pos:R:3 pbc="F F F"
C        1.89146884       1.98756034       0.10085424
C        3.39746884       1.83256034       0.39785424
H        1.30646884       1.56956034       0.91885424
H        1.64646884       3.04556034       0.01085424
H        1.63246884       1.47956034      -0.82714576
H        3.66246884       2.35756034       1.31485424
H        3.63676884       0.76175034       0.47596424
H        3.95437884       2.24971534      -0.45410576
C       -0.68053116      -0.53643966      -1.05114576
C       -1.64753116      -1.38143966      -1.86814576
C       -0.95253116      -0.64443966       0.41085424
O       -2.04353116      -0.21443966       0.81885424
O       -0.07853116      -1.13443966       1.15485424
H        0.34646884      -0.84443966      -1.26014576
H       -0.78453116       0.50456034      -1.34014576
H       -2.65453116      -0.98243966      -1.74414576
H       -1.62889116      -2.43330436      -1.54684576
H       -1.36689116      -1.28619506      -2.92746576
