30
Properties=species:S:1:pos:R:3 pbc="F F F"
C       -0.94127802      -1.74013910       2.74934519
C        1.09672198      -0.59113910      -0.19665481
C       -0.06027802      -1.23413910       0.32834519
C       -0.00627802      -1.11113910       1.76134519
C        1.12672198      -0.40613910       2.04034519
C        1.36672198      -0.53013910      -1.56165481
C        0.46072198      -1.12613910      -2.42765481
C       -0.96127802      -1.83213910      -0.56865481
C       -0.69427802      -1.77113910      -1.94065481
N        1.79372198      -0.10013910       0.87534519
H        2.67772198       0.39486090       0.83834519
H        2.25172198      -0.03113910      -1.93165481
H        1.47772198      -0.17513910       3.04134519
H        0.63972198      -1.09313910      -3.49365481
H       -1.84127802      -2.33713910      -0.20165481
H       -0.40327802      -1.88813910       3.68634519
H       -1.19027802      -2.72113910       2.36734519
H       -1.38027802      -2.22813910      -2.63865481
H       -1.88263802      -1.21366510       2.96537119
C       -0.84027802       2.60586090      -0.63065481
C       -2.28127802       3.10286090      -0.46265481
C        0.26072198       3.58386090      -0.20965481
H       -0.71627802       1.66486090      -0.09565481
H       -0.71827802       2.38286090      -1.69165481
H       -2.38327802       4.01286090      -1.04965481
H       -0.06127802       4.60586090      -0.41065481
H       -2.51061802       3.30116910       0.59473619
H       -2.97945802       2.35543642      -0.86750981
H        0.48657198       3.47995390       0.86188319
H        1.16401198       3.38880780      -0.80632981
