19
Properties=species:S:1:pos:R:3 pbc="F F F"
C        1.07933589      -0.62562129       0.00792171
C        2.37233589       0.12137871      -0.27607829
C        1.24633589      -2.13862129      -0.09607829
H        0.73733589      -0.37462129       1.01292171
H        0.31233589      -0.29262129      -0.69507829
H        2.16033589       1.19137871      -0.28307829
H        2.73433589      -0.15162129      -1.26507829
H        2.04233589      -2.48062129       0.57292171
H        0.31633589      -2.59962129       0.25792171
H        3.12559589      -0.08887129       0.49748171
H        1.43533589      -2.45460129      -1.13262629
C       -2.20966411       0.95337871       0.84892171
C       -2.41866411       1.63937871      -0.48907829
H       -1.83366411      -0.05762129       0.70192171
H       -1.48266411       1.51337871       1.43192171
H       -3.13366411       0.92237871       1.41892171
H       -1.41666411       1.80037871      -0.89007829
H       -2.85066411       2.62437871      -0.34807829
H       -2.97690411       1.04535871      -1.22766729
