20
Properties=species:S:1:pos:R:3 pbc="F F F"
C        2.33432440      -0.07187477      -0.28113657
C        1.59132440      -0.16787477       2.10086343
N        0.28832440      -0.13687477       1.80786343
N        2.52832440      -0.12087477       1.17486343
N        2.00432440      -0.26287477       3.34086343
H       -0.02167560      -0.11987477       0.84486343
H       -0.39267560      -0.16787477       2.54986343
H        3.48732440      -0.13987477       1.51886343
H        3.01132440      -0.31887477       3.47186343
H        1.34332440      -0.36887477       4.10186343
H        1.29432440       0.09612523      -0.55813657
H        2.63532440      -1.03587477      -0.69613657
H        2.98161540       0.70673523      -0.71098657
C       -3.07967560       1.35512523      -2.07213657
C       -2.11567560       0.14412523      -2.04313657
O       -1.45967560      -0.11387477      -0.99913657
O       -2.07867560      -0.60087477      -3.07613657
H       -4.09067560       0.98612523      -2.26413657
H       -2.82167560       1.96612523      -2.93413657
H       -3.12782060       1.96736523      -1.15952657
