26
Properties=species:S:1:pos:R:3 pbc="F F F"
C       -2.65362245       0.04370076       1.46451801
C       -0.41962245      -1.14529924       1.36851801
C       -1.53362245      -0.62629924       0.69351801
C        0.58837755      -1.79929924       0.66651801
C       -1.61662245      -0.77029924      -0.69548199
C        0.49537755      -1.93729924      -0.71448199
C       -0.60162245      -1.42229924      -1.40048199
H       -0.33162245      -1.04229924       2.44151801
H        1.44237755      -2.20829924       1.18351801
H       -3.21462245       0.68370076       0.78251801
H       -2.22262245       0.68670076       2.23351801
H       -2.47362245      -0.38529924      -1.22848199
H        1.26337755      -2.45129924      -1.26048199
H       -0.65262245      -1.52329924      -2.47148199
H       -3.34713245      -0.67567924       1.92445801
C        1.45937755       1.84570076      -0.13948199
C        2.87537755       1.61770076      -0.64148199
C        0.98237755       3.23270076      -0.57048199
H        0.79637755       1.08470076      -0.55048199
H        1.43937755       1.78270076       0.94951801
H        3.52737755       2.40370076      -0.25348199
H        2.86337755       1.69870076      -1.73148199
H        1.73037755       3.96570076      -0.25948199
H        0.91737755       3.28370076      -1.65848199
H        3.29050755       0.63589076      -0.36999199
H        0.02663755       3.51155076      -0.10273199
