27
Properties=species:S:1:pos:R:3 pbc="F F F"
C        1.84401226       2.53425684      -0.13705689
C        0.11701226       0.69025684       0.63294311
C        1.43101226       1.12925684       0.23494311
C        0.19601226      -0.69874316       0.90094311
C        2.22101226       0.02325684       0.27094311
C       -1.11798774       1.33325684       0.78794311
C       -0.90298774      -1.44374316       1.30294311
C       -2.21798774       0.58725684       1.19794311
C       -2.10798774      -0.78874316       1.44794311
N        1.49201226      -1.07074316       0.66994311
H       -1.20798774       2.39325684       0.59594311
H        0.98301226       3.05925684      -0.55005689
H        2.60101226       2.47525684      -0.91705689
H        3.27301226       0.01725684       0.03594311
H        1.85801226      -2.01674316       0.76394311
H       -0.81898774      -2.50674316       1.46494311
H       -3.17698774       1.07425684       1.32294311
H       -2.98298774      -1.34574316       1.75794311
H        2.23673226       3.11148484       0.71299311
C       -0.53598774      -0.49574316      -2.62205689
C       -0.60798774      -1.60974316      -3.66005689
H       -1.35598774       0.20625684      -2.75205689
H       -0.61598774      -0.93474316      -1.63305689
H        0.41001226       0.03825684      -2.69405689
H       -1.61098774      -2.03774316      -3.63505689
H        0.08901226      -2.38174316      -3.35305689
H       -0.37308774      -1.29653916      -4.68802689
