30
Properties=species:S:1:pos:R:3 pbc="F F F"
C       -0.69330482      -1.68182146      -0.02147891
C       -0.11530482      -2.65982146       1.04652109
C        0.27369518      -0.61082146      -0.46347891
C        0.81669518      -0.49882146      -1.68847891
C        0.76569518       0.50417854       0.30752109
C        1.62269518       1.27617854      -0.53547891
C        0.56269518       0.93317854       1.63952109
C        2.26469518       2.43917854      -0.09147891
C        1.20369518       2.09717854       2.09052109
C        2.04469518       2.84517854       1.23152109
N        1.63769518       0.63217854      -1.76047891
H       -1.02730482      -2.21182146      -0.91847891
H       -1.55230482      -1.16982146       0.41652109
H        0.10069518      -2.09382146       1.95752109
H        0.56169518      -1.25082146      -2.42647891
H        2.16269518       0.94317854      -2.57247891
H       -0.08030482       0.39117854       2.32652109
H        2.90469518       2.98517854      -0.77247891
H        1.03669518       2.41017854       3.11652109
H        2.52269518       3.74417854       1.60052109
H        0.81212518      -3.10520146       0.65728109
H       -0.88557482      -3.38909146       1.33780109
C       -4.18230482      -2.43782146      -1.35847891
C       -4.77030482      -1.68082146      -0.12847891
H       -4.98830482      -2.74882146      -2.02247891
H       -3.50230482      -1.78482146      -1.90847891
H       -3.63430482      -3.32182146      -1.02447891
H       -5.30730482      -0.79382146      -0.47047891
H       -3.95130482      -1.36582146       0.52252109
H       -5.46695382      -2.28028146       0.47594109
