27
Properties=species:S:1:pos:R:3 pbc="F F F"
C       -0.86759339      -1.61057930       2.73912101
C        0.59640661       0.73242070       0.21312101
C       -0.52859339       0.20542070       0.89412101
C       -0.04659339      -0.78457930       1.81412101
C        1.30340661      -0.82557930       1.66312101
C        0.48740661       1.72442070      -0.74887899
C       -0.77659339       2.19942070      -1.04487899
C       -1.79759339       0.70342070       0.57812101
C       -1.90959339       1.69542070      -0.39087899
N        1.69340661       0.08242070       0.70912101
H        2.65440661       0.30842070       0.45712101
H        1.37140661       2.12842070      -1.21287899
H        1.97140661      -1.48157930       2.21212101
H       -0.89859339       2.98042070      -1.78187899
H       -2.66559339       0.33142070       1.09512101
H       -0.40159339      -2.57657930       2.82712101
H       -1.85259339      -1.76557930       2.29812101
H       -2.88359339       2.08242070      -0.65187899
H       -0.97285939      -1.19672930       3.75285101
C        0.60040661      -1.96657930      -2.22387899
C        0.90040661      -1.39657930      -3.60887899
H        1.24440661      -1.51857930      -1.47287899
H       -0.42859339      -1.72957930      -1.95087899
H        0.72840661      -3.04857930      -2.22387899
H        0.85640661      -0.30957930      -3.53687899
H        1.90110951      -1.69191930      -3.95725899
H        0.13500261      -1.72017930      -4.32959899
