23
Properties=species:S:1:pos:R:3 pbc="F F F"
C        3.41553348       1.56763387      -0.41703794
C       -0.52246652       0.35863387       0.67896206
C        0.16453348      -0.35336613      -0.30603794
C        0.04953348       1.46363387       1.30696206
C        1.43053348       0.05163387      -0.66603794
C        1.33553348       1.85363387       0.94296206
C        2.02353348       1.14663387      -0.05003794
H       -1.51546652       0.04063387       0.96896206
H       -0.28646652      -1.21436613      -0.77703794
H       -0.49346652       2.00263387       2.06996206
H        1.95753348      -0.47936613      -1.44303794
H        1.79853348       2.70363387       1.42596206
H        3.55153348       2.61563387      -0.17703794
H        3.51153348       1.45363387      -1.48503794
H        4.20610348       0.97740387       0.06941206
C       -2.97646652      -2.38836613      -0.28503794
C       -4.18746652      -3.01436613      -0.94603794
H       -3.25246652      -1.98436613       0.68996206
H       -2.19746652      -3.13936613      -0.15203794
H       -2.58146652      -1.58836613      -0.90703794
H       -3.88746652      -3.35736613      -1.93003794
H       -5.02032852      -2.30385813      -1.05336794
H       -4.52246552      -3.89715413      -0.38171794
