23
Properties=species:S:1:pos:R:3 pbc="F F F"
C       -0.07388103       2.41149707      -0.99267191
C        0.25011897       0.19749707       0.10332809
C        0.66411897       1.12549707      -0.84167191
C        0.91511897      -1.01550293       0.22332809
C        1.73611897       0.81749707      -1.67467191
C        1.98711897      -1.32050293      -0.61167191
C        2.40511897      -0.39650293      -1.55767191
H       -0.56988103       0.42849707       0.76832809
H        0.59911897      -1.72250293       0.97432809
H        0.62211897       3.24449707      -0.88867191
H       -0.79988103       2.50349707      -0.18267191
H        2.12311897       1.54749707      -2.36867191
H        2.50511897      -2.26550293      -0.50867191
H        3.25611897      -0.61550293      -2.18867191
H       -0.62019103       2.47762707      -1.94512191
C       -2.74488103      -0.59850293       2.11132809
C       -4.03188103      -1.23150293       2.58632809
H       -2.73388103      -0.55250293       1.02032809
H       -2.66788103       0.41549707       2.50732809
H       -1.88788103      -1.17250293       2.46732809
H       -4.02488103      -1.21850293       3.67432809
H       -4.08087103      -2.27117293       2.23040809
H       -4.91174103      -0.67349293       2.23351809
