16
Properties=species:S:1:pos:R:3 pbc="F F F"
C        1.98908988       0.27975024       0.40712770
C        2.20208988       0.62075024       1.88512770
H        2.28208988      -0.74724976       0.21312770
H        0.94508988       0.42375024       0.14912770
H        2.57908988       0.94475024      -0.22587230
H        1.98208988       1.68175024       2.01012770
H        3.24992288       0.44443924       2.16965770
H        1.48871288       0.07944424       2.52393770
C       -1.39091012      -0.31624976      -0.88387230
C       -2.79791012      -0.58624976      -1.40587230
H       -1.42491012       0.40175024      -0.06587230
H       -0.96091012      -1.24724976      -0.51487230
H       -0.76391012       0.07775024      -1.68387230
H       -3.41591012      -0.95024976      -0.58487230
H       -2.72291012      -1.37824976      -2.14887230
H       -3.26656012       0.29318424      -1.87166230
