31
Properties=species:S:1:pos:R:3 pbc="F F F"
C       -1.45846243       0.22958937       3.35859376
C       -0.51446243      -0.75541063       2.73659376
C       -0.99146243      -1.94541063       2.19659376
C        0.85153757      -0.48741063       2.66959376
C       -0.11646243      -2.84941063       1.63559376
C        1.72153757      -1.38741063       2.07759376
C        1.23253757      -2.56241063       1.56459376
H       -2.32146243       0.33758937       2.69859376
H       -0.97246243       1.20358937       3.40959376
H       -2.04946243      -2.17441063       2.23059376
H        1.24753757       0.43158937       3.07559376
H       -0.48946243      -3.78141063       1.22959376
H        2.77953757      -1.17241063       2.01259376
H        1.90953757      -3.26941063       1.10359376
H       -1.82111243      -0.04348063       4.36055076
C        0.91753757      -1.55741063      -2.43040624
C        0.13653757       0.29758937      -0.92740624
C        0.41753757      -0.16041063      -2.20840624
C       -0.31846243       1.58658937      -0.72340624
C       -0.51146243       2.44758937      -1.80540624
C        0.21453757       0.69858937      -3.28640624
C       -0.26746243       1.98558937      -3.09940624
O       -0.99846243       3.70758937      -1.57240624
H        0.29353757      -0.35441063      -0.07940624
H       -0.50946243       1.92458937       0.28359376
H        1.80153757      -1.70341063      -1.80840624
H        1.22153757      -1.67841063      -3.47140624
H        0.43253757       0.35858937      -4.29140624
H       -1.08546243       3.89058937      -0.63740624
H       -0.41446243       2.65058937      -3.93740624
H        0.17365757      -2.32580063      -2.17307524
