19
Properties=species:S:1:pos:R:3 pbc="F F F"
C        0.43969890      -1.73242920      -1.30410858
C        1.22569890      -2.93542920      -1.79210858
H        0.47369890      -1.66842920      -0.21810858
H        0.88069890      -0.82542920      -1.71510858
H       -0.59630110      -1.79842920      -1.63910858
H        2.23269890      -2.89642920      -1.37210858
H        1.31869890      -2.84442920      -2.87310858
H        0.75401890      -3.89382120      -1.52942858
C       -0.23730110       1.21257080       0.74489142
C        0.06669890       2.68257080       0.91289142
C       -1.50430110       0.83957080       1.48889142
H       -0.38530110       0.98857080      -0.31210858
H        0.59369890       0.61457080       1.11789142
H        0.06369890       2.92257080       1.97889142
H       -0.73130110       3.25857080       0.43889142
H       -1.37030110       1.02057080       2.55789142
H       -2.29530110       1.51557080       1.15789142
H        1.03481890       2.99591080       0.49510142
H       -1.86026110      -0.18597920       1.31129142
