30
Properties=species:S:1:pos:R:3 pbc="F F F"
C       -1.12755590       1.17615886      -4.65135430
C       -0.62155590      -0.09384114      -1.05835430
C       -1.78055590       0.34115886      -0.40835430
C       -0.44855590       0.16015886      -2.43235430
C       -1.41055590       0.85515886      -3.17635430
C       -2.76855590       1.03515886      -1.13535430
C       -2.57255590       1.28815886      -2.51935430
H        0.14044410      -0.61984114      -0.50335430
H       -1.91055590       0.14315886       0.64764570
H        0.44544410      -0.18384114      -2.93635430
H       -3.66755590       1.37315886      -0.63035430
H       -0.31055590       0.52715886      -4.97335430
H       -0.78055590       2.21115886      -4.69135430
H       -3.32055590       1.82515886      -3.08735430
H       -1.96602590       1.00665886      -5.34289430
C        1.36744410      -2.78384114       0.92764570
C        1.49744410      -1.49784114       1.73964570
C        2.22344410      -0.39684114       1.25464570
C        0.84244410      -1.38184114       2.96564570
C        2.27444410       0.80715886       2.00664570
C        0.89344410      -0.19884114       3.71364570
C        1.60044410       0.88715886       3.23964570
H        1.19944410      -2.48384114      -0.10435430
H        0.47744410      -3.30584114       1.28664570
H        2.73744410      -0.47384114       0.30464570
H        0.28344410      -2.22884114       3.33964570
H        2.81544410       1.67115886       1.64864570
H        0.38344410      -0.12384114       4.66264570
H        1.62744410       1.79615886       3.82364570
H        2.21260410      -3.48394114       1.00267570
