23
Properties=species:S:1:pos:R:3 pbc="F F F"
C       -1.16565775       0.11136672      -2.73206832
C       -0.33465775      -0.07363328      -0.36306832
C       -0.43065775       0.67336672      -1.53706832
C        0.38334225       0.41536672       0.71993168
C        0.22834225       1.90336672      -1.61906832
C        1.02834225       1.64336672       0.63193168
C        0.94934225       2.39336672      -0.53606832
H       -0.82765775      -1.03363328      -0.29106832
H        0.45434225      -0.16263328       1.63093168
H       -1.14865775      -0.97763328      -2.67106832
H       -0.61765775       0.38436672      -3.63006832
H        0.18634225       2.47836672      -2.53506832
H        1.61334225       2.00336672       1.46693168
H        1.46734225       3.34036672      -0.61006832
H       -2.20882775       0.44400672      -2.83767832
C       -0.28165775      -3.25463328       1.75193168
C       -0.17365775      -2.82563328       3.22893168
H       -1.31765775      -3.26763328       1.41993168
H        0.27934225      -2.56163328       1.12593168
H        0.14134225      -4.25163328       1.62393168
H       -0.60065775      -1.82963328       3.33693168
H       -0.72670775      -3.53179328       3.86569168
H        0.88593225      -2.78668328       3.52178168
