21
Properties=species:S:1:pos:R:3 pbc="F F F"
C       -0.64138802       0.98237852      -0.43561850
C       -1.97938802       1.61637852      -0.82561850
C        0.33761198       0.80637852      -1.59561850
O        0.10161198       1.36037852      -2.69261850
O        1.35861198       0.10637852      -1.40761850
H       -0.18038802       1.54337852       0.38138150
H       -0.90138802      -0.00362148      -0.12661850
H       -1.80238802       2.53137852      -1.39161850
H       -2.48538802       1.90937852       0.09438150
H       -2.65459802       0.95332852      -1.38638850
C        0.29861198      -1.36362148       1.66838150
C       -0.17138802      -2.78062148       1.96038150
N        0.62661198      -0.61162148       2.90438150
H        1.12761198      -1.36462148       0.95238150
H       -0.58038802      -0.90162148       1.25538150
H       -1.09238802      -2.72662148       2.54538150
H        0.58161198      -3.31762148       2.54138150
H        1.41461198      -1.03062148       3.38438150
H        0.88361198       0.34637852       2.69638150
H       -0.15038802      -0.58962148       3.55438150
H       -0.35465802      -3.32394148       1.02165150
