23
Properties=species:S:1:pos:R:3 pbc="F F F"
C        0.05511112       0.55540518      -2.15798006
C       -0.38488888       1.32040518      -3.40598006
O        0.47411112       1.45940518      -1.15298006
H       -0.76588888      -0.05959482      -1.78798006
H        0.89211112      -0.09459482      -2.39798006
H       -1.24788888       1.93040518      -3.14698006
H       -0.30688888       1.85640518      -0.72998006
H       -0.67707988       0.63360518      -4.21402206
H        0.41486112       2.00087518      -3.73364006
C        0.05511112      -0.75459482       1.43901994
C       -1.23288888      -1.59059482       1.20401994
C       -0.18388888       0.40940518       2.40501994
C        1.22911112      -1.63359482       1.90101994
H        0.34911112      -0.34059482       0.48301994
H       -0.95588888      -2.38959482       0.51601994
H       -0.46288888       0.04540518       3.39501994
H        0.73011112       0.99740518       2.49701994
H       -0.96488888       1.05440518       2.01701994
H        2.12011112      -1.00659482       1.94901994
H        1.03511112      -2.01059482       2.89901994
H       -2.02735888      -1.01989482       0.70090594
H       -1.59222888      -2.09683482       2.11209094
H        1.44349412      -2.48390482       1.23693794
