30
Properties=species:S:1:pos:R:3 pbc="F F F"
C       -3.39132884       2.57399453       2.62069735
C       -2.10832884       0.43799453      -0.24430265
C       -2.22032884       1.31799453      -1.30730265
C       -2.48832884       0.84299453       1.03369735
C       -3.00732884       2.11299453       1.24269735
C       -2.72532884       2.59099453      -1.10630265
C       -3.11132884       2.99199453       0.16669735
H       -1.73332884      -0.56100547      -0.40430265
H       -1.93332884       1.00699453      -2.29830265
H       -2.39232884       0.15499453       1.86169735
H       -2.81632884       3.27399453      -1.94130265
H       -3.38132884       1.74499453       3.31969735
H       -4.40632884       2.95699453       2.57469735
H       -3.50332884       3.98899453       0.31669735
H       -2.71609604       3.34558453       3.01907735
C        5.12367116      -1.76000547       0.17069735
C        1.50567116      -0.71300547      -0.42430265
C        0.92167116      -1.91700547      -0.81630265
C        2.86967116      -0.66500547      -0.11230265
C        3.65367116      -1.81900547      -0.16130265
C        1.69967116      -3.07400547      -0.87430265
C        3.06067116      -3.02500547      -0.54630265
H        0.90867116       0.18799453      -0.37730265
H       -0.12532884      -1.95900547      -1.07730265
H        3.31467116       0.27699453       0.17669735
H        1.25467116      -4.01800547      -1.15330265
H        5.30167116      -2.35800547       1.06169735
H        5.40467116      -0.73000547       0.40069735
H        3.64167116      -3.93500547      -0.57830265
H        5.77459516      -2.13636547      -0.63220265
