16
Properties=species:S:1:pos:R:3 pbc="F F F"
C        1.80227510       0.46262561      -0.66742404
C        2.63227510      -0.50437439      -1.52842404
O        1.87027510       1.79462561      -1.13542404
H        0.76327510       0.13562561      -0.67342404
H        2.17127510       0.42162561       0.35857596
H        2.50727510      -1.50137439      -1.10242404
H        1.49027510       2.36762561      -0.45742404
H        3.70315510      -0.25332439      -1.51493504
H        2.25189510      -0.53947439      -2.55996604
C       -2.27372490       0.66362561       1.40257596
C       -1.59272490      -0.56037439       0.83357596
O       -0.94072490      -1.32637439       1.59157596
O       -1.70672490      -0.73937439      -0.40042404
H       -3.31972490       0.68662561       1.08757596
H       -1.77672490       1.54762561       0.99657596
H       -2.22466490       0.70547561       2.50068396
