29
Properties=species:S:1:pos:R:3 pbc="F F F"
C        1.80718526       0.70793468      -2.55067904
C        1.16218526       0.68993468      -3.96467904
C        2.98818526      -0.23806532      -2.70367904
H        1.08618526       0.31493468      -1.83267904
H        2.12318526       1.71293468      -2.26967904
H        0.12718526       1.02893468      -3.94067904
H        1.75418526       1.29993468      -4.64967904
H        3.84818526       0.31493468      -3.08867904
H        1.23423526      -0.36999732      -4.24990304
H        2.63570526      -0.94301932      -3.47100904
H        3.26819526      -0.74209132      -1.76689904
C        0.47218526       0.49293468       0.98132096
C        1.27818526       0.83793468       2.22232096
C       -0.64581474      -0.39006532       2.95132096
C       -2.95781474      -1.18506532       1.38132096
C       -1.76681474      -0.48106532       0.74132096
O       -1.75781474      -0.25406532      -0.46567904
N       -0.72881474      -0.16606532       1.51332096
H        0.22618526       1.39293468       0.41632096
H        1.03018526      -0.21406532       0.36832096
H        1.00518526       1.83093468       2.57532096
H        2.34318526       0.80093468       2.00832096
H       -0.92681474      -1.40506532       3.20232096
H       -2.95881474      -1.01406532       2.45232096
H        0.97091526       0.08819368       2.96628096
H        0.42447526      -0.25369132       3.16552096
H       -1.24574474       0.34814068       3.50371096
H       -3.87617474      -0.75427732       0.95583096
H       -2.89475474      -2.27348492       1.23515096
