18
Properties=species:S:1:pos:R:3 pbc="F F F"
C        0.96533047       1.07151872       2.19432448
C       -0.53866953       0.89251872       2.12832448
O       -1.07966953       0.49851872       1.09432448
N       -1.22666953       1.15951872       3.22932448
H        1.26433047       1.45551872       3.16832448
H        1.24733047       1.81951872       1.45332448
H       -2.22766953       1.03751872       3.20632448
H       -0.75766953       1.37151872       4.10432448
H        1.50076647       0.13702872       1.97062448
C        1.26333047      -0.92248128      -3.40567552
C        0.44833047      -0.96748128      -2.12267552
O       -0.09066953      -1.99948128      -1.74267552
N        0.30733047       0.17651872      -1.47467552
H       -0.27166953       0.18351872      -0.63967552
H        0.72333047       1.02551872      -1.82667552
H        2.03833047      -0.16248128      -3.29267552
H        0.60533047      -0.61348128      -4.21867552
H        1.74867347      -1.87887128      -3.65013352
