24
Properties=species:S:1:pos:R:3 pbc="F F F"
C       -1.39581749       3.61673603      -1.64109488
C       -0.40681749       0.18973603      -0.42509488
C        0.66518251      -0.11526397      -1.26009488
C       -1.07181749       1.40273603      -0.54509488
C       -0.65781749       2.33073603      -1.49009488
C        1.08318251       0.80873603      -2.20609488
C        0.41418251       2.02273603      -2.32309488
H       -0.72281749      -0.51726397       0.32590512
H        1.18318251      -1.06026397      -1.15709488
H       -1.89181749       1.63373603       0.11990512
H        1.93418251       0.58973603      -2.83709488
H       -0.69981749       4.44973603      -1.53709488
H       -2.12181749       3.70873603      -0.83109488
H        0.80118251       2.75273603      -3.01709488
H       -1.94212749       3.68286603      -2.59354488
C        1.31718251      -1.11026397       2.28490512
C       -1.04381749      -2.56626397       2.64690512
S        0.50918251      -2.62826397       1.72890512
H        1.71018251      -1.23826397       3.29190512
H        2.14418251      -0.87626397       1.61390512
H        0.61118251      -0.27926397       2.27190512
H       -1.67481749      -3.38726397       2.30390512
H       -1.54681749      -1.62826397       2.40790512
H       -0.91505749      -2.63796397       3.73698512
