29
Properties=species:S:1:pos:R:3 pbc="F F F"
C        1.49063397       1.77750494       2.47924718
C        1.25463397       1.61650494       0.03024718
N        1.80763397       1.19950494       1.16524718
N        0.42963397       2.63850494       0.01224718
N        1.56763397       0.99850494      -1.08675282
H        2.42263397       0.39850494       1.13224718
H        0.17263397       3.10150494       0.86524718
H       -0.09736603       2.81650494      -0.84775282
H        2.12663397       0.15850494      -1.07275282
H        0.98863397       1.19650494      -1.88575282
H        0.42963397       1.61950494       2.68924718
H        1.68963397       2.85250494       2.48224718
H        2.06572397       1.30797494       3.29091718
C       -2.11836603      -0.53149506      -2.96775282
C       -1.82436603      -0.10249506      -0.47675282
C       -1.46036603      -0.81049506      -1.63575282
C       -1.28236603      -0.40449506       0.76424718
C       -0.51036603      -1.83249506      -1.49175282
C       -0.33036603      -1.41549506       0.87624718
C        0.06963397      -2.13049506      -0.25675282
O        0.19263397      -1.68349506       2.09924718
H       -2.56436603       0.68350494      -0.55175282
H       -1.57336603       0.15150494       1.64224718
H       -3.19336603      -0.49449506      -2.79475282
H       -1.95836603      -1.38949506      -3.60875282
H       -0.20936603      -2.39849506      -2.36475282
H        0.82163397      -2.90049506      -0.18175282
H        0.94163397      -2.29149506       2.07024718
H       -1.85412303       0.37923494      -3.52519282
