21
Properties=species:S:1:pos:R:3 pbc="F F F"
C        3.37470920       1.68872248       0.12372534
C       -0.19329080       1.28272248      -0.39827466
C        1.89270920       1.49772248       0.25872534
C        1.11570920       1.38872248       1.36672534
N        1.05270920       1.42872248      -0.83627466
N       -0.18129080       1.25572248       0.92772534
H       -1.07529080       1.18572248      -1.01927466
H       -1.00429080       1.11572248       1.51672534
H        1.44770920       1.40472248       2.39272534
H        3.77870920       0.83572248      -0.42227466
H        3.82170920       1.69372248       1.11672534
H        3.63401920       2.61576248      -0.40858466
C       -2.72129080      -2.25627752       0.57872534
C       -1.63829080      -1.96627752      -0.43327466
O       -1.86629080      -1.96827752      -1.64127466
N       -0.43029080      -1.74227752       0.05472534
H       -2.45729080      -1.81027752       1.53572534
H       -2.74829080      -3.33727752       0.71272534
H        0.31270920      -1.48827752      -0.57427466
H       -0.31029080      -1.65827752       1.05972534
H       -3.71615080      -1.89503752       0.27912534
