27
Properties=species:S:1:pos:R:3 pbc="F F F"
C        0.43500022      -3.19418145      -0.95784174
C        1.37600022      -2.35818145      -1.79184174
H        0.35600022      -4.20118145      -1.36684174
H        0.80300022      -3.24718145       0.06615826
H       -0.55799978      -2.74818145      -0.91984174
H        1.44000022      -1.35718145      -1.36684174
H        1.04150022      -2.28041145      -2.83686174
H        2.37981022      -2.80802145      -1.79473174
C       -2.84099978       1.68681855      -0.58684174
C        0.15300022       0.02881855       0.95515826
C       -0.39499978       0.91781855       0.00115826
C       -1.82699978       0.88881855       0.15715826
C       -2.07799978      -0.01118145       1.12515826
C        1.52000022      -0.17918145       1.09715826
C        2.35900022       0.53381855       0.26615826
C        0.47900022       1.61781855      -0.82684174
C        1.85400022       1.42781855      -0.67784174
N       -0.90499978      -0.54318145       1.60215826
H       -0.82599978      -1.34618145       2.22215826
H        1.89800022      -0.86918145       1.83615826
H       -3.06799978      -0.26118145       1.47115826
H        3.43000022       0.40781855       0.35015826
H        0.09300022       2.29181855      -1.57284174
H       -2.38299978       2.64481855      -0.82384174
H       -3.68899978       1.88781855       0.07115826
H        2.53200022       1.99081855      -1.30384174
H       -3.20633978       1.25011855      -1.52802174
