22
Properties=species:S:1:pos:R:3 pbc="F F F"
C       -3.67479852      -0.92132709      -1.22745335
C       -1.53579852      -0.79632709       0.11254665
N       -0.40179852      -1.38032709       0.45454665
N       -2.35379852      -1.40132709      -0.74845335
N       -1.81979852       0.38167291       0.63554665
H       -0.14079852      -2.23332709      -0.02245335
H       -0.06979852      -1.27932709       1.39854665
H       -2.04479852      -2.29132709      -1.11345335
H       -2.67279852       0.84167291       0.35754665
H       -1.26379852       0.79367291       1.36454665
H       -3.65779852      -0.88732709      -2.31945335
H       -3.88679852       0.08567291      -0.86945335
H       -4.48273852      -1.59639809      -0.90884835
C        1.42120148       1.86467291      -0.44045335
C        2.53120148       1.00467291       0.16754665
O        3.71020148       1.13967291      -0.16045335
N        2.17920148       0.15967291       1.10454665
H        2.90820148      -0.40232709       1.52554665
H        1.22920148       0.07967291       1.39554665
H        0.44120148       1.44067291      -0.24045335
H        1.56120148       1.87367291      -1.52345335
H        1.48046148       2.89384991      -0.05668035
