26
Properties=species:S:1:pos:R:3 pbc="F F F"
C        0.46035123       1.15367937      -0.78685409
C        1.90735123       1.27467937      -0.31985409
C        1.56835123      -0.97932063      -0.95085409
C       -2.15864877      -0.24432063      -1.18685409
C       -0.82564877      -0.97432063      -1.28185409
O       -0.80764877      -2.18032063      -1.52685409
N        0.29535123      -0.27732063      -1.03285409
H       -0.22664877       1.52367937      -0.02385409
H        0.33435123       1.68967937      -1.71685409
H        1.94235123       1.19467937       0.76314591
H        2.34635123       2.22367937      -0.63085409
H        1.72635123      -1.59732063      -1.83685409
H       -2.00164877       0.80567937      -1.42885409
H        2.43762123       0.41981937      -0.76486009
H        2.32294123      -0.17937063      -0.92493309
H        1.64128123      -1.60685063      -0.05036109
H       -2.87494877      -0.68298063      -1.89713309
H       -2.55120877      -0.33690063      -0.16346509
C        0.43335123       0.98667937       3.07614591
C       -0.94864877       1.17467937       3.71414591
H        1.13235123       0.53467937       3.78014591
H        0.32035123       0.34267937       2.21314591
H        0.82335123       1.94667937       2.74114591
H       -1.65264877       1.41467937       2.91914591
H       -0.92715877       2.01773837       4.42039591
H       -1.27886877       0.25007237       4.21018891
