24
Properties=species:S:1:pos:R:3 pbc="F F F"
C        4.26223626      -2.11433373      -0.46870667
C        2.06823626       0.75266627      -0.70170667
C        1.76223626      -1.38533373      -0.24070667
C        3.09923626      -1.17033373      -0.46970667
N        1.13623626      -0.15433373      -0.38770667
N        3.28023626       0.18066627      -0.72870667
H        0.13823626       0.03666627      -0.31070667
H        1.86723626       1.80066627      -0.89070667
H        1.27923626      -2.31633373       0.01429333
H        4.97223626      -1.75933373       0.27829333
H        4.75323626      -2.06033373      -1.44170667
H        4.00815726      -3.16033373      -0.24213467
C       -2.00376374      -0.88033373       1.96029333
C       -2.46176374       0.16066627       0.98229333
C       -2.32376374       1.50066627      -0.75070667
C       -3.60076374       0.89966627       0.94329333
N       -1.66476374       0.56666627      -0.05770667
N       -3.50176374       1.72766627      -0.16170667
H       -1.95476374       2.00666627      -1.63670667
H       -2.23076374      -0.54033373       2.96229333
H       -0.91776374      -0.95633373       1.88729333
H       -4.19076374       2.40166627      -0.47270667
H       -4.42776374       0.83766627       1.63829333
H       -2.42894174      -1.88647373       1.83023933
