30
Properties=species:S:1:pos:R:3 pbc="F F F"
C        2.53319938      -0.21516681       1.95134360
C        3.89619938      -0.38016681       1.28134360
H        2.61719938       0.32083319       2.89034360
H        1.89319938       0.37583319       1.29734360
H        2.06619938      -1.18416681       2.10534360
H        4.35219938       0.60383319       1.17434360
H        4.55050938      -1.01434681       1.89754360
H        3.77835938      -0.80670681       0.27428360
C       -1.25880062       0.39183319       2.19934360
C       -2.76280062       0.28383319       2.45834360
C       -0.85080062       0.72383319       0.80434360
C       -0.65080062       1.96983319       0.29034360
C       -0.54980062      -0.20516681      -0.25965640
C       -0.17680062       0.56183319      -1.39165640
C       -0.54380062      -1.60716681      -0.37165640
C        0.15819938      -0.01616681      -2.60865640
C       -0.20880062      -2.18216681      -1.58965640
C        0.12919938      -1.39716681      -2.69465640
N       -0.26980062       1.88083319      -1.02565640
H       -0.85380062       1.16783319       2.85034360
H       -0.77880062      -0.54616681       2.48034360
H       -3.23080062       1.21883319       2.14934360
H       -0.78780062       2.89483319       0.84034360
H       -0.09980062       2.67983319      -1.62465640
H       -0.79680062      -2.22116681       0.47934360
H        0.41819938       0.59483319      -3.46065640
H       -0.19880062      -3.25916681      -1.68765640
H        0.36819938      -1.87516681      -3.63365640
H       -2.93525062       0.12945319       3.53371360
H       -3.20990062      -0.52567681       1.86269360
