20
Properties=species:S:1:pos:R:3 pbc="F F F"
C       -0.96663500      -2.70188453      -0.87530605
C       -1.75463500      -3.95088453      -0.47730605
H       -1.20663500      -1.88988453      -0.18930605
H        0.10336500      -2.90388453      -0.82730605
H       -1.22963500      -2.40688453      -1.89130605
H       -1.45263500      -4.75188453      -1.15630605
H       -2.83701600      -3.78807453      -0.58659905
H       -1.49669600      -4.25709453       0.54724395
C        1.79836500       1.91511547       1.89169395
C        0.23836500       0.35911547      -0.99030605
C        0.88336500       1.47311547       0.78969395
C       -0.39363500       1.83911547       0.50769395
N        1.26236500       0.54611547      -0.16230605
N       -0.76863500       1.13211547      -0.60930605
H        0.22236500      -0.31688453      -1.83830605
H       -1.69863500       1.12711547      -1.02630605
H       -0.99363500       2.54511547       1.06069395
H        2.07836500       1.03211547       2.46169395
H        1.25936500       2.58911547       2.55969395
H        2.71193000       2.40648147       1.52569137
