16
Properties=species:S:1:pos:R:3 pbc="F F F"
C       -0.47712015      -1.73642925      -1.16216945
C        0.71187985      -1.71442925      -2.13216945
H       -0.23312015      -1.18442925      -0.25716945
H       -1.36412015      -1.29842925      -1.61716945
H       -0.73712015      -2.76142925      -0.89616945
H        0.47887985      -2.39642925      -2.94716945
H        1.63766985      -2.05146925      -1.64296945
H        0.85375985      -0.70767925      -2.55206945
C       -0.38812015       1.21257075       1.14583055
C        0.15787985       2.23657075       2.15483055
H       -0.42812015       0.22257075       1.60183055
H       -1.38712015       1.49757075       0.81483055
H        0.26187985       1.18157075       0.27183055
H        0.03787985       3.22657075       1.71183055
H        1.23107985       2.07912075       2.33773055
H       -0.40540015       2.21292075       3.09933055
