24
Properties=species:S:1:pos:R:3 pbc="F F F"
C        0.36511527       2.96700758       1.19306337
C       -0.21588473       0.71100758       0.21906337
C        0.75411527       1.59300758       0.70106337
C        0.13311527      -0.56999242      -0.22293663
C        2.07611527       1.16500758       0.76806337
C        1.46111527      -0.98199242      -0.15993663
C        2.43511527      -0.12199242       0.32706337
O        1.82411527      -2.23299242      -0.54993663
H       -1.25088473       1.02300758       0.18806337
H       -0.61288473      -1.25399242      -0.59893663
H       -0.71088473       3.10600758       1.07406337
H        0.87611527       3.70800758       0.57806337
H        2.83611527       1.83100758       1.15106337
H        3.46611527      -0.44299242       0.37706337
H        2.77511527      -2.36799242      -0.55893663
H        0.64218527       3.14573758       2.24248537
C       -3.50888473      -0.61899242      -0.60893663
C       -4.56788473      -1.40099242      -1.36093663
H       -2.81288473      -0.14599242      -1.29993663
H       -3.98788473       0.17000758      -0.03693663
H       -2.95188473      -1.27999242       0.05706337
H       -5.23388473      -0.69199242      -1.85393663
H       -4.09575473      -2.03288242      -2.12762063
H       -5.16560473      -1.99942242      -0.65765263
