27
Properties=species:S:1:pos:R:3 pbc="F F F"
C       -0.21080452      -0.87490952       2.29496129
C       -1.49480452      -1.59790952       2.70996129
C        0.82719548      -1.79590952       1.72096129
O        0.50219548      -2.75290952       1.01996129
N        2.08719548      -1.46590952       1.93696129
H       -0.40080452      -0.08290952       1.57196129
H        0.17919548      -0.43890952       3.21296129
H       -1.79880452      -2.26390952       1.91096129
H        2.82419548      -2.05490952       1.57696129
H        2.30919548      -0.63390952       2.46096129
H       -2.26346452      -0.83073952       2.88493129
H       -1.28043452      -2.24317952       3.57464129
C        1.99119548       1.16109048      -0.56103871
C       -0.22880452       0.17109048      -1.25603871
C        0.60819548       1.28509048      -1.19603871
C       -1.53280452       0.27009048      -1.77503871
C        0.11219548       2.50709048      -1.67603871
C       -2.02280452       1.48409048      -2.23503871
C       -1.20380452       2.61109048      -2.18903871
H        0.13919548      -0.77890952      -0.89503871
H       -2.16980452      -0.60090952      -1.82003871
H        2.26119548       0.10309048      -0.57603871
H        1.89319548       1.47809048       0.47996129
H        0.74719548       3.38109048      -1.64403871
H       -3.02980452       1.55009048      -2.62803871
H       -1.58680452       3.55909048      -2.54703871
H        2.79686548       1.71051048      -1.06999871
