30
Properties=species:S:1:pos:R:3 pbc="F F F"
C       -3.64953145      -1.71951985       1.15007926
C       -0.18853145      -0.30451985       1.09107926
C       -1.55153145      -0.24051985       0.71507926
C       -2.18353145      -1.41551985       1.22007926
C       -1.22653145      -2.13051985       1.85107926
C        0.24146855       1.78548015       0.04507926
C        0.69846855       0.69048015       0.76207926
C       -1.09653145       1.88648015      -0.34292074
C       -2.00353145       0.87648015      -0.01492074
N       -0.00753145      -1.47551985       1.78507926
H        0.93046855       2.57048015      -0.21692074
H        1.72146855       0.57448015       1.07707926
H       -1.45153145       2.74348015      -0.89992074
H       -3.03453145       0.97948015      -0.32992074
H        0.87246855      -1.79051985       2.17707926
H       -1.50153145      -3.06951985       2.31407926
H       -3.78353145      -2.76351985       1.42307926
H       -3.95853145      -1.58451985       0.10707926
H       -4.20233145      -1.10908985       1.87931926
C        2.83946855       0.77948015      -2.24392074
C        4.18746855       1.13748015      -1.58792074
C        2.89746855       0.19348015      -3.66492074
H        2.36146855       0.05548015      -1.58592074
H        2.24546855       1.69348015      -2.25792074
H        4.73546855       1.79848015      -2.25992074
H        3.77746855      -0.44451985      -3.72592074
H        2.00446855      -0.40651985      -3.84692074
H        4.77766855       0.22978015      -1.39368074
H        3.98050855       1.71608015      -0.67558074
H        2.96693855       0.97518015      -4.43568074
