16
Properties=species:S:1:pos:R:3 pbc="F F F"
C       -0.86459649       1.01362432      -1.45386137
C       -2.22959649       1.01662432      -0.77286137
H       -0.10059649       1.44762432      -0.80986137
H       -0.58359649      -0.00837568      -1.70486137
H       -0.91659649       1.58362432      -2.38186137
H       -2.15259649       0.45662432       0.15513863
H       -2.51727649       2.05863332      -0.56924237
H       -2.98323649       0.51993932      -1.40161337
C        0.90440351      -0.65737568       0.90613863
C        2.19240351      -1.36837568       1.31813863
H        0.64140351      -0.95337568      -0.10786137
H        0.09140351      -0.95037568       1.56413863
H        1.02240351       0.42362432       0.97813863
H        2.53440351      -0.93437568       2.25713863
H        2.98565351      -1.26983968       0.56246163
H        1.94748351      -2.42731568       1.48742463
