16
Properties=species:S:1:pos:R:3 pbc="F F F"
C       -2.43999819       1.40174414       1.18605694
O       -1.61599819       0.29674414       1.49305694
H       -1.34899819      -0.11225586       0.64305694
H       -3.18499819       1.51174414       1.97305694
H       -2.97299819       1.20874414       0.25305694
H       -1.84856819       2.32508814       1.09859694
C        1.22500181      -0.70125586       0.38605694
C        2.41500181       0.23274414       0.48405694
C        0.45900181      -0.51025586      -0.90494306
O        1.05300181      -0.01125586      -1.87694306
O       -0.74299819      -0.85725586      -0.92994306
H        1.59400181      -1.72825586       0.42705694
H        0.58600181      -0.56625586       1.25105694
H        2.06700181       1.26074414       0.39305694
H        3.10500181       0.02374414      -0.33294306
H        2.96414181       0.11176014       1.42947694
