13
Properties=species:S:1:pos:R:3 pbc="F F F"
C       -2.58796508       0.63702327       0.50161529
O       -1.83996508      -0.39097673       1.12861529
H       -0.88196508      -0.19097673       1.02161529
H       -2.41696508       0.59402327      -0.57338471
H       -2.26096508       1.61002327       0.87061529
H       -3.66024508       0.50406327       0.70787529
C        0.49003492      -0.92397673      -1.38138471
C        1.23003492      -0.02197673      -0.38838471
O        0.81403492       0.02402327       0.79261529
O        2.20703492       0.65402327      -0.78938471
H       -0.44196508      -0.42497673      -1.65438471
H        0.20703492      -1.86797673      -0.91438471
H        1.05010492      -1.09944673      -2.31172471
