13
Properties=species:S:1:pos:R:3 pbc="F F F"
C        1.63989800       2.05534465      -0.11905362
C        0.71389800       0.96234465       0.39894638
O       -0.41010200       0.87034465      -0.19805362
O        1.02389800       0.25734465       1.37094638
H        1.10189800       3.00534465      -0.13205362
H        1.90789800       1.82634465      -1.15105362
H        2.56806800       2.17754465       0.45850638
C       -1.23210200      -2.56565535      -0.37905362
O       -1.52310200      -1.32565535      -0.97205362
H       -1.02510200      -0.58965535      -0.53605362
H       -1.63310200      -3.37365535      -0.99305362
H       -1.70710200      -2.60365535       0.60294638
H       -0.14577200      -2.68643535      -0.25539362
