18
Properties=species:S:1:pos:R:3 pbc="F F F"
C        0.19060067       1.54239669       2.62316855
C        0.59160067       0.16639669       2.11816855
O        1.76160067      -0.11060331       1.86916855
N       -0.38539933      -0.71060331       1.95816855
H       -0.12439933      -1.67860331       1.82716855
H       -1.32939933      -0.47060331       2.23216855
H       -0.57739933       1.41439669       3.38816855
H       -0.24739933       2.10739669       1.79916855
H        1.03258067       2.09485969       3.06571355
C       -0.60439933       1.16939669      -1.69183145
C       -0.51739933      -0.25060331      -2.21483145
O       -0.52639933      -0.48660331      -3.42183145
N       -0.44039933      -1.21060331      -1.30783145
H       -0.40539933      -2.16860331      -1.62683145
H       -0.47339933      -0.98760331      -0.32583145
H       -0.81639933       1.15739669      -0.62183145
H       -1.45039933       1.64539669      -2.19083145
H        0.30816067       1.75214269      -1.88584145
