24
Properties=species:S:1:pos:R:3 pbc="F F F"
C       -1.05093189       3.05509821      -0.60420865
C        0.87406811      -0.26890179      -0.40920865
C        0.12606811      -1.07690179      -1.24820865
C        0.48706811       1.06709821      -0.20120865
C       -0.65093189       1.60709821      -0.82320865
C       -1.00493189      -0.56190179      -1.87820865
C       -1.39493189       0.78209821      -1.66520865
O        0.47406811      -2.38390179      -1.44720865
H        1.74706811      -0.67690179       0.07879135
H        1.07406811       1.69109821       0.45779135
H       -1.59393189      -1.18990179      -2.53220865
H       -0.07593189      -2.80390179      -2.11920865
H       -0.63493189       3.40609821       0.34179135
H       -2.13593189       3.10109821      -0.53120865
H       -2.27593189       1.17109821      -2.16020865
H       -0.73037339       3.72633521      -1.41456865
C        1.17906811      -1.08890179       3.07879135
C        0.71306811      -0.60990179       4.44079135
H        1.99506811      -0.46690179       2.71279135
H        1.54506811      -2.11290179       3.16479135
H        0.35506811      -1.07090179       2.36779135
H        1.57606811      -0.50990179       5.09579135
H        0.06706811      -1.38790179       4.84679135
H        0.17086441       0.34718121       4.43793135
