33
Properties=species:S:1:pos:R:3 pbc="F F F"
C       -0.73311374      -0.65718995       0.41635609
C       -2.05611374      -1.02318995       1.09035609
C       -0.30811374       0.78181005       0.74335609
C        0.80988626       1.04981005       1.51735609
C       -1.04011374       1.86381005       0.24135609
C        1.17988626       2.35881005       1.77635609
C       -0.65611374       3.16381005       0.49535609
C        0.44488626       3.39281005       1.27535609
O        0.87888626       4.64281005       1.54335609
H        0.04488626      -1.36018995       0.71335609
H       -0.85811374      -0.71618995      -0.66364391
H       -2.74411374      -0.19318995       0.96235609
H        1.40088626       0.23781005       1.90335609
H       -1.91011374       1.67181005      -0.36764391
H        2.05788626       2.55381005       2.37335609
H       -1.19411374       3.99281005       0.06735609
H        1.65788626       4.65081005       2.10335609
H       -1.89028174      -1.18526995       2.16563709
H       -2.51197974      -1.90380795       0.61422909
C        0.10088626      -3.40918995      -2.09064391
C       -0.69711374      -4.71418995      -2.15364391
C        1.16488626      -3.47318995      -0.96964391
C        0.79188626      -3.05518995      -3.41564391
H       -0.58011374      -2.59718995      -1.84564391
H       -1.15511374      -4.85818995      -1.17664391
H        0.00188626      -5.52818995      -2.30864391
H        1.88488626      -4.26218995      -1.18564391
H        1.68288626      -2.51918995      -0.88964391
H        0.67588626      -3.69018995      -0.01964391
H        0.04088626      -2.89518995      -4.18664391
H        1.34988626      -2.13118995      -3.30964391
H        1.46188626      -3.86018995      -3.71564391
H       -1.46931674      -4.75593065      -2.93592291
