16
Properties=species:S:1:pos:R:3 pbc="F F F"
C        0.10008493      -0.34762817       1.76087891
C        0.42608493      -0.48862817       3.23787891
H        0.85408493      -0.84562817       1.15187891
H       -0.86691507      -0.80762817       1.55287891
H        0.05808493       0.70637183       1.48487891
H        0.47908493      -1.54362817       3.48087891
H        1.40577493      -0.02948817       3.43638691
H       -0.34795507      -0.02014817       3.86348491
C       -0.14591507      -0.06562817      -1.92512109
C       -0.38291507       0.90437183      -3.07812109
H       -0.52691507      -1.05862817      -2.17112109
H        0.92308493      -0.13762817      -1.71312109
H       -0.62891507       0.30137183      -1.02212109
H       -0.15691507       1.91637183      -2.73912109
H       -1.44482507       0.85071183      -3.36003609
H        0.28402493       0.63831183      -3.91143309
