23
Properties=species:S:1:pos:R:3 pbc="F F F"
C       -0.30644840      -0.58676896      -2.94712305
C       -0.71944840      -0.83176896      -4.39012305
H       -1.12944840      -0.12876896      -2.39512305
H       -0.03544840      -1.52876896      -2.46712305
H        0.55755160       0.07623104      -2.90312305
H        0.13155160      -1.24476896      -4.92512305
H       -1.00276840       0.11137104      -4.88025305
H       -1.54207840      -1.56139896      -4.42040305
C       -1.84744840       0.33123104       2.59587695
C        0.79155160       1.19723104       0.00387695
C        1.68955160       0.16623104       0.14387695
C       -0.36344840       1.23823104       0.76387695
C       -0.63144840       0.25023104       1.70387695
C        1.46555160      -0.80876896       1.10587695
C        0.30955160      -0.77076896       1.87687695
H        0.98555160       1.96223104      -0.73012305
H        2.58555160       0.14123104      -0.46212305
H       -1.04244840       2.07023104       0.64787695
H        2.19755160      -1.57176896       1.26287695
H       -2.20144840      -0.68076896       2.79087695
H       -2.64644840       0.87223104       2.08487695
H        0.14755160      -1.53476896       2.62587695
H       -1.62807840       0.81214104       3.56055695
