18
Properties=species:S:1:pos:R:3 pbc="F F F"
C       -2.47174677      -1.36791745      -1.81983134
O       -1.53374677      -0.54091745      -1.18383134
H       -1.21074677       0.07208255      -1.86283134
H       -1.95274677      -2.12491745      -2.40883134
H       -3.08274677      -0.76391745      -2.49183134
H       -3.13800677      -1.85789745      -1.09457134
C       -0.01574677       1.01708255       0.65416866
C       -0.46374677       0.80808255       2.09116866
C        1.26725323       0.30108255       0.31816866
O        2.30025323       0.57008255       0.92516866
N        1.22925323      -0.59991745      -0.64283134
H       -0.79074677       1.15108255      -0.06283134
H        0.31425323       2.05708255       0.65816866
H        0.27325323       1.28308255       2.73116866
H        2.07725323      -1.09291745      -0.87483134
H        0.32625323      -0.90891745      -0.97383134
H       -0.55086677      -0.25554745       2.35782866
H       -1.44681677       1.27821255       2.24134866
