35
Properties=species:S:1:pos:R:3 pbc="F F F"
C       -0.79615712      -2.30969470       0.81300584
C       -1.11615712       0.16130530       1.09900584
C       -1.41415712      -1.13269470       1.51400584
C       -1.66715712       1.25930530       1.74200584
C       -2.28215712      -1.31769470       2.59300584
C       -2.52915712       1.07130530       2.81600584
C       -2.84215712      -0.21969470       3.24600584
O       -3.05615712       2.16130530       3.44100584
H       -0.42115712       0.30930530       0.29000584
H       -1.41915712       2.25530530       1.41300584
H       -0.38215712      -1.99869470      -0.14699416
H       -1.58415712      -3.03369470       0.61400584
H       -2.52515712      -2.31969470       2.92200584
H       -3.51015712      -0.37369470       4.08300584
H       -3.59515712       1.93330530       4.20800584
H       -0.01352712      -2.80432470       1.40699884
C        4.41784288      -0.58269470      -0.92699416
C        0.91184288      -0.40169470      -2.27599416
C        1.99184288       0.19230530      -1.56899416
C        3.05684288      -0.77169470      -1.52799416
C        2.59984288      -1.86469470      -2.20499416
C       -0.42115712       1.54130530      -1.99199416
C       -0.29015712       0.25630530      -2.48999416
C        0.62584288       2.15630530      -1.28699416
C        1.83484288       1.49330530      -1.07199416
N        1.31784288      -1.65369470      -2.64699416
H       -1.34815712       2.07930530      -2.14099416
H       -1.08915712      -0.22069470      -3.03299416
H        0.48884288       3.15830530      -0.90399416
H        2.64584288       1.97130530      -0.55099416
H        0.73784288      -2.34569470      -3.13499416
H        3.17384288      -2.76069470      -2.39699416
H        4.66884288      -1.43569470      -0.29499416
H        4.40484288       0.31230530      -0.30299416
H        5.17236288      -0.46125470      -1.71816376
