24
Properties=species:S:1:pos:R:3 pbc="F F F"
C        2.53246600       1.33253462      -2.83535024
C        1.55946600       1.36453462      -4.03535024
H        2.40446600       2.21453462      -2.20735024
H        2.32346600       0.45053462      -2.23235024
H        3.57346600       1.25553462      -3.14435024
H        1.61846600       0.41153462      -4.56135024
H        1.83972600       2.17195462      -4.72783024
H        0.54334600       1.50770462      -3.63912024
C       -2.43053400       0.39753462      -1.16435024
C       -0.10153400       0.09953462      -0.28035024
C       -1.47753400       0.07453462      -0.04935024
C        0.79146600      -0.31646538       0.69764976
C       -1.95053400      -0.36546538       1.19064976
C        0.31446600      -0.76346538       1.92964976
C       -1.06053400      -0.78246538       2.18264976
O        1.19746600      -1.19146538       2.87564976
H        0.28246600       0.44053462      -1.21935024
H        1.84346600      -0.28446538       0.49364976
H       -3.25153400      -0.32046538      -1.12535024
H       -1.90853400       0.20753462      -2.10235024
H       -3.01553400      -0.41746538       1.37064976
H       -1.43453400      -1.13246538       3.13064976
H        0.75246600      -1.40646538       3.69864976
H       -2.85744400       1.41045462      -1.20611024
