18
Properties=species:S:1:pos:R:3 pbc="F F F"
C       -0.79108288       0.00016820      -1.55883183
C       -0.64208288      -1.51383180      -1.72583183
O       -1.38608288       0.63516820      -2.67983183
H       -1.43108288       0.19216820      -0.69783183
H        0.17991712       0.45016820      -1.35683183
H       -0.47608288      -1.96783180      -0.74983183
H       -1.49708288       1.57716820      -2.48383183
H        0.20577712      -1.75147880      -2.38511183
H       -1.54962288      -1.97274080      -2.14509183
C        0.83391712       0.42816820       1.51316817
C        0.63491712      -1.01583180       1.94416817
O        1.37191712       1.20616820       2.51816817
H        1.51391712       0.45916820       0.66216817
H       -0.12508288       0.84516820       1.20516817
H        0.49191712      -1.63383180       1.06016817
H        1.19091712       2.13716820       2.32516817
H       -0.23174288      -1.12633980       2.61251817
H        1.52807712      -1.39578980       2.46175817
