24
Properties=species:S:1:pos:R:3 pbc="F F F"
C       -2.46792858      -0.88738791       1.35161145
C       -2.58492858      -1.60538791       2.69361145
H       -1.51992858      -0.35338791       1.29161145
H       -2.52992858      -1.61138791       0.53861145
H       -3.28592858      -0.17338791       1.24661145
H       -3.54392858      -2.12138791       2.74161145
H       -2.49713858      -0.89309791       3.52724145
H       -1.76053858      -2.32751791       2.78801145
C        3.08507142       0.59161209       1.13961145
C       -0.43692858       0.25761209      -1.32738855
C        0.26207142      -0.87238791      -0.91038855
C        0.07807142       1.50561209      -1.02238855
C        1.42307142      -0.75338791      -0.15138855
C        1.18407142       1.63761209      -0.17938855
C        1.89607142       0.48261209       0.23061145
O       -1.58492858       0.04661209      -2.11438855
H       -0.09892858      -1.85738791      -1.17338855
H       -1.77992858      -0.88838791      -2.22938855
H       -0.44892858       2.37961209      -1.37038855
H        1.92507142      -1.65338791       0.16561145
H        1.52807142       2.62161209       0.11361145
H        2.77507142       0.26361209       2.13061145
H        3.38307142       1.63761209       1.21861145
H        3.95184142      -0.01098791       0.83046145
