17
Properties=species:S:1:pos:R:3 pbc="F F F"
C       -1.08755084       0.66716155      -0.49205195
C       -1.98755084      -0.05783845      -1.51405195
O       -1.43255084       2.02916155      -0.35005195
H       -1.17955084       0.17816155       0.47894805
H       -0.04855084       0.59916155      -0.81305195
H       -1.69355084      -1.10883845      -1.55205195
H       -0.93455084       2.52716155      -1.02705195
H       -1.89441384       0.38513155      -2.51660095
H       -3.03596984      -0.00334845      -1.18564895
C        2.07344916      -0.82883845       0.75694805
C        2.49344916      -1.99483845       1.65394805
H        1.09744916      -1.02183845       0.31794805
H        2.00644916       0.07816155       1.35894805
H        2.80744916      -0.66483845      -0.03205195
H        1.81544916      -2.04283845       2.50494805
H        3.48344916      -1.77983845       2.05594805
H        2.53805916      -2.96761845       1.14237805
