15
Properties=species:S:1:pos:R:3 pbc="F F F"
C        1.99552534       1.30871308       0.05830186
C        0.59352534       1.23571308       0.64330186
O       -0.28647466       1.99971308       0.19930186
O        0.37952534       0.43171308       1.57330186
H        2.44252534       0.32471308       0.10430186
H        2.58152534       1.99071308       0.67830186
H        2.00700534       1.66170608      -0.98345814
C       -1.01547466      -1.74628692      -1.16569814
C       -1.62247466      -3.14128692      -1.26569814
H       -0.19147466      -1.62728692      -1.86769814
H       -1.77147466      -1.01028692      -1.41769814
H       -0.65647466      -1.56328692      -0.15369814
H       -1.95947466      -3.32628692      -2.27969814
H       -0.86351466      -3.89808492      -1.01822814
H       -2.48288466      -3.22336792      -0.58528814
