16
Properties=species:S:1:pos:R:3 pbc="F F F"
C        1.42839553       0.76292433       0.10155963
C        1.93539553       1.63392433      -1.04644037
H        0.49839553       1.17292433       0.49855963
H        1.25939553      -0.24907567      -0.26844037
H        2.17039553       0.68592433       0.89455963
H        2.87839553       1.22392433      -1.38444037
H        2.09700553       2.67574133      -0.73259647
H        1.23678553       1.60367533      -1.89557537
C       -1.71760447      -1.17807567       1.22955963
C       -1.65260447      -1.21707567      -0.28244037
H       -2.49460447      -1.85307567       1.59555963
H       -0.75660447      -1.48107567       1.65155963
H       -1.94360447      -0.16407567       1.56255963
H       -0.88360447      -0.52507567      -0.62044037
H       -2.61390747      -0.88629657      -0.70253737
H       -1.37157447      -2.22373967      -0.62544117
