20
Properties=species:S:1:pos:R:3 pbc="F F F"
C       -0.93421740       2.74841880       0.62287483
C       -1.55521740       4.04541880       0.11187483
H       -1.11221740       1.94941880      -0.09412517
H        0.14078260       2.87441880       0.76087483
H       -1.38421740       2.47741880       1.57887483
H       -1.35121740       4.81641880       0.85787483
H       -2.64569740       3.94034880       0.01280483
H       -1.07782430       4.35163880      -0.83063517
C        2.06378260      -1.94058120      -1.48212517
C       -0.04421740      -0.40958120       1.04687483
C        0.94278260      -1.49658120      -0.58912517
C       -0.37321740      -1.83358120      -0.59712517
N        1.12678260      -0.60058120       0.44587483
N       -0.96321740      -1.14158120       0.43287483
H       -0.22821740       0.25141880       1.88687483
H       -1.96221740      -1.10658120       0.63387483
H       -0.85521740      -2.50858120      -1.28612517
H        2.50278260      -1.05358120      -1.93212517
H        1.65978260      -2.56058120      -2.28412517
H        2.85266360      -2.49121420      -0.94876517
