30
Properties=species:S:1:pos:R:3 pbc="F F F"
C        3.59166594       2.29120619      -1.23800374
C        1.46466594       0.35320619       1.21899626
C        2.04666594      -0.91179381       1.21699626
C        1.97066594       1.37320619       0.43399626
C        3.07466594       1.15820619      -0.37200374
C        3.15766594      -1.14479381       0.40699626
C        3.66166594      -0.10879381      -0.37500374
H        0.60666594       0.54320619       1.84099626
H        1.63466594      -1.69379381       1.84199626
H        1.50266594       2.34420619       0.45099626
H        3.62466594      -2.11879381       0.38699626
H        3.63866594       3.17920619      -0.61200374
H        2.85166594       2.45520619      -2.02500374
H        4.52166594      -0.29379381      -0.99200374
H        4.58071594       2.12397619      -1.68946374
C       -2.55433406      -2.80379381      -0.90200374
C       -1.77133406       0.88520619      -0.37600374
C       -2.82033406       1.30920619       0.43799626
C       -1.70633406      -0.44879381      -0.82300374
C       -2.68633406      -1.36579381      -0.47400374
C       -3.80533406       0.39920619       0.78099626
C       -3.74233406      -0.93079381       0.32899626
H       -1.00233406       1.58920619      -0.66000374
H       -2.86333406       2.33120619       0.79199626
H       -0.88533406      -0.77779381      -1.44300374
H       -4.62833406       0.71720619       1.40499626
H       -1.89333406      -2.82379381      -1.77000374
H       -3.54633406      -3.13679381      -1.20500374
H       -4.51133406      -1.62979381       0.60999626
H       -2.21692406      -3.46287381      -0.08851374
