23
Properties=species:S:1:pos:R:3 pbc="F F F"
C        2.21683294      -1.34384305      -1.23479543
C       -1.29116706      -1.04684305       0.17520457
C       -1.06216706      -0.68884305       1.49720457
C       -0.22716706      -1.24784305      -0.69179543
C        1.08783294      -1.12784305      -0.24779543
C        0.24383294      -0.52484305       1.95020457
C        1.31683294      -0.72584305       1.07520457
H       -2.30316706      -1.14484305      -0.18979543
H       -1.89116706      -0.54484305       2.17220457
H       -0.42916706      -1.50684305      -1.71979543
H        0.41783294      -0.22884305       2.97220457
H        2.47383294      -0.37584305      -1.66579543
H        1.85183294      -1.97784305      -2.04379543
H        2.31883294      -0.56684305       1.43520457
H        3.12470294      -1.80675105      -0.82069543
C       -0.96916706       2.28615695      -0.66779543
C       -1.22516706       3.62115695      -1.36079543
H       -0.08216706       2.31415695      -0.03879543
H       -1.82116706       2.05315695      -0.02979543
H       -0.86916706       1.49615695      -1.41179543
H       -1.22316706       4.39615695      -0.59479543
H       -2.19816706       3.60315695      -1.84379543
H       -0.44802406       3.80557595      -2.11712543
