24
Properties=species:S:1:pos:R:3 pbc="F F F"
C       -2.41790128      -1.74770188      -0.71645094
C       -0.76890128      -0.28270188       0.48754906
C       -1.56090128      -0.51270188      -0.63145094
C        0.02609872       0.85229812       0.57254906
C        0.03109872       1.77329812      -0.46845094
C       -1.54790128       0.41629812      -1.67145094
C       -0.75690128       1.55729812      -1.59245094
O        0.80809872       2.88929812      -0.38445094
H       -0.77090128      -0.99270188       1.30454906
H        0.63609872       1.02029812       1.44954906
H       -3.24490128      -1.54770188      -1.40045094
H       -2.85390128      -1.93470188       0.26654906
H       -2.16590128       0.25529812      -2.54545094
H        1.29309872       2.92729812       0.44854906
H       -0.76390128       2.28929812      -2.38645094
H       -1.88331128      -2.65118188      -1.04498794
C        2.48709872      -1.65070188       1.68054906
C        2.89109872      -3.02370188       2.20754906
H        1.74809872      -1.18570188       2.33454906
H        3.36009872      -1.00070188       1.61554906
H        2.06509872      -1.74670188       0.68054906
H        3.73409872      -3.37570188       1.61054906
H        2.07339872      -3.74927188       2.08543006
H        3.21563872      -2.96782188       3.25709806
