31
Properties=species:S:1:pos:R:3 pbc="F F F"
C       -3.39524867      -1.78672091       0.54771282
C       -4.73624867      -1.72072091       1.33071282
C       -1.80424867      -1.67472091       2.76871282
S       -2.13024867      -2.71472091       1.33171282
H       -3.59124867      -2.21472091      -0.43428718
H       -3.01924867      -0.77572091       0.39871282
H       -5.44424867      -1.10572091       0.77271282
H       -4.56624867      -1.23772091       2.29171282
H       -2.69824867      -1.58072091       3.38371282
H       -1.02024867      -2.12972091       3.37271282
H       -1.47924867      -0.68772091       2.43871282
H       -5.18194867      -2.71333091       1.49220282
C        4.49875133       1.85727909      -0.19128718
C        0.84575133       1.66027909      -1.17928718
C        2.02675133       1.04527909      -0.67528718
C        3.04675133       2.07027909      -0.61928718
C        2.45275133       3.22027909      -1.07328718
C       -0.35824867      -0.35972091      -1.06428718
C       -0.34424867       0.97427909      -1.36728718
C        0.78775133      -1.02872091      -0.57228718
C        2.00675133      -0.35172091      -0.40528718
N        1.13275133       2.97727909      -1.42128718
H       -1.26724867      -0.92572091      -1.21928718
H       -1.21124867       1.47027909      -1.77228718
H        0.73175133      -2.08672091      -0.35928718
H        2.88875133      -0.86272091      -0.04628718
H        0.49275133       3.68027909      -1.77028718
H        2.95175133       4.18027909      -1.16128718
H        4.53375133       1.12627909       0.61571282
H        4.86375133       2.79827909       0.20471282
H        5.12961133       1.50170909      -1.01928818
