20
Properties=species:S:1:pos:R:3 pbc="F F F"
C       -2.17122018       0.36685182      -2.53464268
C        0.80077982      -0.61614818      -0.64564268
C       -1.16622018      -0.18814818      -1.54264268
C       -1.36922018      -0.92014818      -0.41164268
N        0.20377982      -0.01014818      -1.67764268
N       -0.12322018      -1.17614818       0.13135732
H        1.85877982      -0.62614818      -0.45464268
H        0.04477982      -1.66214818       1.01335732
H       -2.32422018      -1.21414818      -0.00564268
H       -2.09922018       1.44785182      -2.50464268
H       -3.15222018       0.07985182      -2.17664268
H       -2.02153018       0.03710182      -3.57332268
C        1.31577982       1.13685182       2.43335732
C        2.24877982       1.18185182       3.62635732
H        1.84277982       0.74885182       1.56435732
H        0.46977982       0.48585182       2.64735732
H        0.94277982       2.13585182       2.20935732
H        2.62077982       0.17885182       3.83735732
H        3.08093982       1.86841182       3.41153832
H        1.68419982       1.55211182       4.49477832
