16
Properties=species:S:1:pos:R:3 pbc="F F F"
C       -0.38004977       1.51226410       1.16716498
C       -1.76004977       1.15626410       1.72116498
H        0.26795023       0.63526410       1.15616498
H       -0.48104977       1.89426410       0.15316498
H        0.07395023       2.27426410       1.79916498
H       -2.38204977       2.05426410       1.70416498
H       -1.66328177       0.80144410       2.75786498
H       -2.26555677       0.38229410       1.12498498
C        0.34995023      -1.31573590      -1.19983502
C        1.79495023      -1.35473590      -1.68483502
H        0.31195023      -1.59373590      -0.14783502
H       -0.07104977      -0.31673590      -1.30183502
H       -0.28104977      -1.99073590      -1.78283502
H        1.78695023      -1.26473590      -2.76683502
H        2.24048023      -2.32941590      -1.43683502
H        2.40555023      -0.52327590      -1.30294502
