24
Properties=species:S:1:pos:R:3 pbc="F F F"
C        0.71691190      -2.01108487       0.83733992
C        0.85991190      -3.49308487       1.15233992
H        0.36591190      -1.47008487       1.71633992
H        1.68391190      -1.60708487       0.53933992
H        0.01991190      -1.86708487       0.01333992
H        1.04991190      -4.03808487       0.23033992
H       -0.06660810      -3.87889487       1.60257192
H        1.71381190      -3.65015487       1.82775092
C       -1.74108810       0.67391513      -0.37166008
C       -2.75808810       0.63091513       0.71633992
C        0.68491190       1.09591513      -0.60266008
N       -0.43908810       1.15891513       0.09033992
N        0.73591190       0.47191513      -1.75866008
N        1.79691190       1.59191513      -0.08266008
H       -1.64208810      -0.33508487      -0.77666008
H       -2.10308810       1.33391513      -1.16366008
H       -2.83008810       1.61891513       1.17233992
H       -2.40708810      -0.06808487       1.47533992
H       -0.40708810       1.63391513       0.98133992
H       -0.09808810       0.09191513      -2.17066008
H        1.61891190       0.44491513      -2.25766008
H        1.79091190       2.07691513       0.80133992
H        2.63291190       1.57291513      -0.65166008
H       -3.75564810       0.33781513       0.35721892
