26
Properties=species:S:1:pos:R:3 pbc="F F F"
C        1.43363123       0.80510505      -3.84728560
C       -0.29236877      -0.24889495      -2.26928560
C        0.32163123       0.53710505      -0.26128560
C        0.80063123       0.52510505      -2.51528560
C        1.21563123       1.04610505      -1.24228560
C        0.44363123       0.84210505       1.08971440
C        1.48263123       1.67710505       1.47271440
C        2.25563123       1.89110505      -0.82928560
C        2.37963123       2.19910505       0.52571440
N       -0.58336877      -0.24989495      -0.92428560
H       -1.31436877      -0.81289495      -0.47928560
H       -0.84636877      -0.78989495      -3.02628560
H       -0.25636877       0.43610505       1.80571440
H        1.35163123      -0.08989495      -4.46428560
H        2.49263123       1.00410505      -3.69328560
H        1.61263123       1.93410505       2.51271440
H        2.95163123       2.28710505      -1.55428560
H        3.17863123       2.85110505       0.84971440
H        0.96635123       1.64692505      -4.37926560
C       -1.07736877      -2.96189495       2.34371440
C       -2.13836877      -1.92189495       2.01171440
O       -2.41336877      -1.69189495       0.81271440
O       -2.68636877      -1.31289495       2.96171440
H       -1.14436877      -3.20189495       3.40571440
H       -0.09436877      -2.52389495       2.15771440
H       -1.17191877      -3.88804495       1.75779440
