22
Properties=species:S:1:pos:R:3 pbc="F F F"
C        0.60311171       0.58538370      -1.03262559
C        2.05111171       1.05138370      -1.29362559
C       -0.38388829       1.73738370      -0.73862559
C        0.18811171      -0.15961630      -2.31362559
H        0.62311171      -0.09661630      -0.18362559
H        2.06011171       1.71738370      -2.15662559
H        2.66611171       0.17938370      -1.51562559
H       -0.41888829       2.42038370      -1.58762559
H       -1.38288829       1.33438370      -0.56262559
H       -0.06088829       2.28438370       0.14837441
H        0.85711171      -1.00561630      -2.48062559
H       -0.82988829      -0.52461630      -2.21362559
H        0.24511171       0.51638370      -3.16762559
H        2.57362171       1.60177370      -0.49734559
C       -0.91988829      -1.32061630       1.95537441
C       -1.46988829      -1.81261630       3.29337441
H       -1.45488829      -1.80661630       1.13937441
H       -1.04888829      -0.24061630       1.88037441
H        0.14011171      -1.56261630       1.88337441
H       -0.92488829      -1.32261630       4.10137441
H       -1.32684829      -2.90143630       3.35671441
H       -2.53547829      -1.56209630       3.40186441
