27
Properties=species:S:1:pos:R:3 pbc="F F F"
C       -2.22224768      -0.41968004      -1.94452392
C       -1.00424768      -1.11268004      -2.53852392
C       -2.89524768      -1.27868004      -0.87652392
H       -1.90624768       0.52231996      -1.49452392
H       -2.93624768      -0.19868004      -2.74152392
H       -0.33624768      -1.39668004      -1.72052392
H       -3.13424768      -2.25968004      -1.28852392
H       -2.20724768      -1.42068004      -0.04152392
H       -0.47146208      -0.42993004      -3.21675192
H       -1.29754968      -2.01781004      -3.09053692
H       -3.83714268      -0.84969004      -0.50396192
C        3.01475232      -1.40768004      -0.03252392
C        0.45475232       1.40831996      -0.16352392
C       -0.19524768       1.23431996       1.05947608
C        1.50075232       0.54831996      -0.49952392
C        1.89575232      -0.47668004       0.36147608
C        0.19175232       0.21031996       1.92447608
C        1.22475232      -0.64468004       1.56747608
O       -1.20624768       2.05431996       1.44347608
H        0.16175232       2.20431996      -0.82852392
H        2.01175232       0.68231996      -1.44152392
H       -0.30424768       0.08531996       2.87647608
H       -1.48524768       1.85431996       2.34047608
H        3.67775232      -1.55968004       0.81847608
H        3.60475232      -0.91368004      -0.80552392
H        1.52775232      -1.42868004       2.24647608
H        2.65718332      -2.37751004      -0.40879892
