16
Properties=species:S:1:pos:R:3 pbc="F F F"
C       -0.46506534       0.65105114      -1.36709141
C       -1.01206534       0.95305114      -2.72909141
H       -0.20006534       1.56405114      -0.83109141
H       -1.22506534       0.11605114      -0.79609141
H        0.41693466       0.01205114      -1.43909141
H       -1.37606534       0.03405114      -3.18509141
H       -0.19217534       1.38681124      -3.32038241
H       -1.82693534       1.68635334      -2.63820541
C        0.53593466      -0.08894886       1.89990859
C        0.94593466      -1.52294886       2.19590859
H        0.65693466       0.51305114       2.79790859
H        1.16193466       0.31005114       1.10690859
H       -0.50006534      -0.03894886       1.55490859
H        0.96193466      -2.10294886       1.27490859
H        0.11675466      -1.86403586       2.83318259
H        1.94941466      -1.52364986       2.64649359
