27
Properties=species:S:1:pos:R:3 pbc="F F F"
C       -2.26740595      -1.90396102      -0.10676640
C       -3.00740595      -0.95796102       0.84123360
C       -2.13740595      -1.38896102      -1.52476640
H       -1.26340595      -2.07296102       0.28323360
H       -2.78340595      -2.86596102      -0.11876640
H       -2.56040595       0.03603898       0.77023360
H       -3.16640595      -1.31096102      -1.85176640
H       -1.64740595      -0.41396102      -1.54176640
H       -2.92565595      -1.34097102       1.86915400
H       -4.07772595      -0.90459102       0.59312560
H       -1.62760595      -2.11311102      -2.17722740
C        0.15559405       3.26603898       0.89923360
C        0.89459405      -0.46696102       1.02723360
C        1.40959405      -0.69096102      -0.25076640
C        0.48159405       0.82003898       1.39223360
C        0.57859405       1.88003898       0.48923360
C        1.51059405       0.36103898      -1.16076640
C        1.09259405       1.64303898      -0.78676640
O        1.82359405      -1.93996102      -0.61076640
H        0.82159405      -1.28596102       1.72923360
H        0.08459405       0.98903898       2.38423360
H        1.94459405       0.19803898      -2.13876640
H        2.22759405      -1.96896102      -1.48476640
H        0.83059405       3.99303898       0.44723360
H        0.27759405       3.32803898       1.97723360
H        1.16859405       2.46303898      -1.49176640
H       -0.88725595       3.54062598       0.68230260
