23
Properties=species:S:1:pos:R:3 pbc="F F F"
C        1.87853806       0.34762816      -1.23089612
C        0.72553806      -0.29237184       0.98410388
C        1.46353806       0.52362816       0.19710388
C        1.35453806       1.44162816       2.21510388
N        0.61453806       0.33962816       2.21410388
N        1.90053806       1.56362816       1.01510388
H        0.27753806      -1.23137184       0.69410388
H        0.08753806      -0.00337184       3.01010388
H        1.78353806       1.29762816      -1.75889612
H        1.19853806      -0.36737184      -1.69489612
H        1.50753806       2.10962816       3.05610388
H        2.90861806      -0.02863184      -1.31673612
C       -1.81946194      -1.22337184      -1.58589612
C       -2.68546194      -2.23537184      -2.33489612
C       -2.79046194      -0.13137184      -1.04789612
H       -1.30646194      -1.70337184      -0.75489612
H       -1.09646194      -0.78737184      -2.27689612
H       -3.15546194      -1.71037184      -3.16989612
H       -3.49046194      -2.53637184      -1.65889612
H       -3.47946194       0.15162816      -1.84689612
H       -3.39146194      -0.55437184      -0.24289612
H       -2.23940194      -3.15456184      -2.74247612
H       -2.23237194       0.77382816      -0.76657612
