19
Properties=species:S:1:pos:R:3 pbc="F F F"
C        1.94077131       0.15323270      -1.30795376
C        2.96777131       0.16423270      -2.45195376
O        1.99277131      -1.05876730      -0.57295376
H        2.12577131       0.99223270      -0.63795376
H        0.93977131       0.25823270      -1.72595376
H        3.96477131       0.19223270      -2.00795376
H        1.21077131      -1.08676730       0.02704624
H        2.79226131       1.05684270      -3.07037676
H        2.85196131      -0.76154730      -3.03463776
C       -1.50622869       0.64623270      -0.06595376
C       -2.90722869       1.33223270       0.07404624
C       -1.04522869      -0.16776730       1.15004624
O       -1.46422869       0.15223270       2.27804624
O       -0.23522869      -1.11076730       0.96504624
H       -1.51422869       0.01023270      -0.95095376
H       -0.76922869       1.43323270      -0.23895376
H       -2.97822869       2.08323270      -0.71195376
H       -2.97922869       1.85123270       1.03004624
H       -3.74454869       0.63100270      -0.05703076
