23
Properties=species:S:1:pos:R:3 pbc="F F F"
C        1.79792381      -1.31418738       1.97040196
C       -0.31107619       1.64981262       0.80840196
C        0.01492381       1.70681262      -0.53359804
C        0.28392381       0.65581262       1.61540196
C        1.17192381      -0.27518738       1.08640196
C        0.94292381       0.81781262      -1.07259804
C        1.51692381      -0.20018738      -0.26759804
H       -1.02007619       2.34581262       1.22840196
H       -0.47007619       2.42881262      -1.16659804
H        0.02992381       0.61381262       2.66440196
H        1.19692381       0.87881262      -2.12259804
H        2.02792381      -0.87318738       2.94240196
H        2.75192381      -1.56918738       1.50940196
H        2.21992381      -0.90018738      -0.69559804
H        1.17396381      -2.20819738       2.11680196
C       -2.14007619      -0.85318738      -1.05559804
C       -2.71807619      -1.62918738      -2.25759804
H       -1.09907619      -1.12118738      -0.88959804
H       -2.19707619       0.21581262      -1.25659804
H       -2.70307619      -1.07018738      -0.15059804
H       -2.15507619      -1.36318738      -3.15259804
H       -2.66239619      -2.71628738      -2.09913804
H       -3.75833619      -1.31413738      -2.42673804
