22
Properties=species:S:1:pos:R:3 pbc="F F F"
C       -2.08170654       1.45672881       0.16680475
C       -0.89370654       0.08372881       1.87580475
N        0.25229346       0.18372881       1.23780475
N       -1.99570654       0.64972881       1.38880475
N       -0.94770654      -0.58227119       2.99580475
H        0.35829346       0.74172881       0.41980475
H        1.10029346      -0.23527119       1.64980475
H       -2.84070654       0.53872881       1.93980475
H       -1.81570654      -1.01427119       3.22480475
H       -0.08370654      -0.99227119       3.37380475
H       -1.13770654       1.45372881      -0.37819525
H       -2.28670654       2.49772881       0.43280475
H       -2.85707654       1.07840881      -0.51560525
C        0.40229346      -0.07327119      -2.89919525
C        1.43929346      -0.51127119      -1.88419525
O        1.65929346      -1.69927119      -1.69419525
N        2.09429346       0.45872881      -1.24619525
H        2.72629346       0.19272881      -0.49819525
H        1.91829346       1.42772881      -1.47719525
H       -0.27270654       0.65572881      -2.45619525
H       -0.20070654      -0.94527119      -3.15719525
H        0.85920346       0.31620881      -3.82089525
