24
Properties=species:S:1:pos:R:3 pbc="F F F"
C       -2.31472882       0.98489002       2.55288267
C       -0.44272882       0.83989002      -0.78411733
C       -0.42472882      -0.53310998      -1.03311733
C       -1.07172882       1.33489002       0.37288267
C       -1.67172882       0.46389002       1.28988267
C       -1.02272882      -1.40510998      -0.12311733
C       -1.64172882      -0.90910998       1.02588267
O        0.16727118      -1.02110998      -2.17211733
H        0.02627118       1.51689002      -1.48311733
H       -1.07472882       2.39789002       0.56088267
H       -1.01572882      -2.46810998      -0.31411733
H        0.11527118      -1.98210998      -2.22811733
H       -1.81772882       1.90489002       2.84488267
H       -2.13872882       0.26189002       3.34888267
H       -2.10272882      -1.59910998       1.72088267
H       -3.39495782       1.18363502       2.49283267
C        3.33427118       0.85189002      -0.35011733
C        4.11427118      -0.46610998      -0.44911733
H        2.66827118       0.96489002      -1.20611733
H        2.73427118       0.83689002       0.55788267
H        4.01427118       1.70089002      -0.28411733
H        4.85327118      -0.46510998       0.35288267
H        4.63121118      -0.56563098      -1.41496733
H        3.44928118      -1.32684798      -0.28502733
