16
Properties=species:S:1:pos:R:3 pbc="F F F"
C        0.06230780      -1.98235248      -0.10089072
C       -0.56069220      -2.31935248      -1.46089072
H        0.69830780      -1.10235248      -0.18589072
H       -0.72569220      -1.79235248       0.62510928
H        0.66130780      -2.82535248       0.24610928
H       -1.15769220      -3.22035248      -1.33389072
H        0.21502780      -2.50917948      -2.21734372
H       -1.24385220      -1.51672348      -1.77564772
C       -0.13069220       1.73764752       0.27210928
C        0.63130780       2.57464752       1.28610928
H        0.55230780       1.37264752      -0.49589072
H       -0.58569220       0.88364752       0.77110928
H       -0.90869220       2.33864752      -0.19789072
H        1.34530780       1.89464752       1.74410928
H        1.16328780       3.40018752       0.79064428
H       -0.04051220       2.95034752       2.07192728
