26
Properties=species:S:1:pos:R:3 pbc="F F F"
C        0.70420868      -1.30102953       2.88218157
C       -0.42579132       0.49297047       1.54018157
C        0.70820868      -0.27902953       1.78818157
C       -0.39779132       1.47897047       0.55018157
C        1.86620868      -0.05802953       1.04418157
C        0.76220868       1.68797047      -0.18381843
C        1.89520868       0.92497047       0.06118157
H       -1.32579132       0.33797047       2.11818157
H       -1.27779132       2.07897047       0.35718157
H        1.32720868      -2.14002953       2.57118157
H       -0.30979132      -1.68002953       3.00918157
H        2.75220868      -0.64502953       1.23618157
H        0.77920868       2.44297047      -0.95581843
H        2.79920868       1.09597047      -0.50581843
H        1.08034568      -0.91266953       3.84014157
C       -1.84179132      -0.72202953      -1.80281843
C       -1.65279132      -2.01702953      -2.56981843
C       -1.10079132       0.29797047      -2.65581843
H       -1.42079132      -0.79702953      -0.80081843
H       -2.90179132      -0.46802953      -1.75381843
H       -0.68479132      -2.45902953      -2.33081843
H       -2.46879132      -2.70302953      -2.34181843
H       -0.02679132       0.18397047      -2.51981843
H       -1.41279132       1.31797047      -2.42681843
H       -1.66852212      -1.67843953      -3.61629843
H       -1.40197412      -0.00031953      -3.67085843
