23
Properties=species:S:1:pos:R:3 pbc="F F F"
C       -0.84757826      -3.00659798       0.35320732
C       -0.36257826      -4.20359798      -0.30879268
H       -0.01757826      -2.34459798       0.60220732
H       -1.53157826      -2.47959798      -0.31179268
H       -1.38957826      -3.27459798       1.25820732
H       -0.00257826      -3.86159798      -1.28079268
H       -1.20357826      -4.86859798      -0.51179268
H        0.44495174      -4.73671798       0.21435332
C       -0.74757826       0.31640202      -1.31479268
C       -0.60057826       1.21140202      -2.53679268
C       -0.07057826       0.86640202      -0.10179268
C       -0.55057826       1.13540202       1.13920732
C        1.60542174       1.57240202       1.12920732
N        1.28242174       1.13440202      -0.08079268
N        0.50742174       1.60340202       1.88220732
H       -1.80157826       0.16540202      -1.09879268
H       -0.31557826      -0.65859798      -1.53779268
H       -1.18057826       0.75640202      -3.34079268
H       -1.57557826       1.02340202       1.46020732
H        2.58942174       1.90440202       1.43220732
H        0.45442174       1.97840202       2.82320732
H        0.45691174       1.27007202      -2.83388398
H       -1.04302826       2.20261202      -2.35866168
