29
Properties=species:S:1:pos:R:3 pbc="F F F"
C       -0.83320281      -1.95460859      -1.99694412
C       -1.07820281       0.44639141      -1.29194412
C       -1.30920281      -0.90660859      -1.02194412
C       -1.51420281       1.42939141      -0.42194412
C       -2.00820281      -1.25560859       0.13305588
C       -2.23720281       1.04539141       0.69405588
C       -2.46820281      -0.26860859       1.00805588
H       -0.54320281       0.73639141      -2.18694412
H       -1.33720281       2.47439141      -0.63594412
H       -0.25920281      -2.70360859      -1.44794412
H       -0.17320281      -1.50260859      -2.73794412
H       -2.19720281      -2.29760859       0.35805588
H       -2.62120281       1.81039141       1.35405588
H       -3.01520281      -0.53560859       1.90105588
H       -1.67712981      -2.44666059      -2.50258512
C        2.35479719       0.58939141       0.49005588
C        2.87879719      -0.57060859      -0.35794412
C        1.53079719       0.05939141       1.66005588
C        3.50479719       1.46639141       0.99005588
H        1.69379719       1.20539141      -0.11794412
H        1.98979719      -1.08860859      -0.71894412
H        2.15079719      -0.53660859       2.33005588
H        1.11879719       0.89439141       2.22305588
H        0.70479719      -0.53760859       1.27205588
H        4.05379719       1.88339141       0.15105588
H        3.08979719       2.29339141       1.56705588
H        4.18179719       0.89939141       1.63005588
H        3.50543719      -1.27436259       0.20955188
H        3.38606719      -0.23074259      -1.27291112
