16
Properties=species:S:1:pos:R:3 pbc="F F F"
C        0.37047158      -2.06673706      -1.24339058
C        1.50347158      -1.41373706      -0.48039058
O        2.02547158      -0.36573706      -0.93139058
O        1.85747158      -1.95573706       0.58760942
H       -0.53952842      -1.78273706      -0.71639058
H        0.48247158      -3.15473706      -1.22239058
H        0.32121158      -1.72772206      -2.28869058
C       -2.74952842       2.06526294       0.53060942
C       -1.38552842       1.41026294       0.56760942
O       -1.00252842       0.80526294       1.56460942
N       -0.64952842       1.51226294      -0.52439058
H        0.24247158       1.04026294      -0.55339058
H       -0.99552842       2.03126294      -1.32839058
H       -2.94152842       2.36726294      -0.49439058
H       -2.76552842       2.96226294       1.14360942
H       -3.55361842       1.37429194       0.82385942
