27
Properties=species:S:1:pos:R:3 pbc="F F F"
C       -3.12078610      -0.18463935       1.65126155
C       -2.81478610      -1.24263935       2.77126155
H       -2.64478610       0.76036065       1.90326155
H       -2.74778610      -0.53963935       0.68926155
H       -4.19678610      -0.02763935       1.58726155
H       -3.29778610      -2.17463935       2.47926155
H       -3.20230610      -0.92188235       3.74949155
H       -1.72721610      -1.40631335       2.79136155
C       -0.26078610       2.06536065       0.83826155
C        0.71421390       3.18736065       1.19026155
C        0.29221390       0.92336065      -0.03673845
C        1.48321390       0.26836065       0.29526155
C       -0.45378610       0.41936065      -1.09873845
C        1.93121390      -0.83263935      -0.43473845
C       -0.01778610      -0.67163935      -1.83573845
C        1.19121390      -1.28663935      -1.53273845
O        1.51621390      -2.38963935      -2.25973845
H       -0.58678610       1.62036065       1.77726155
H       -1.13878610       2.47936065       0.35126155
H        1.53721390       2.75836065       1.76326155
H        2.06421390       0.62936065       1.13026155
H       -1.40178610       0.87836065      -1.35073845
H        2.85421390      -1.32563935      -0.17773845
H       -0.61578610      -1.05263935      -2.64873845
H        2.25621390      -2.85363935      -1.81373845
H        0.22042390       3.94594965       1.81533155
H        1.14344390       3.63414465       0.28134155
