26
Properties=species:S:1:pos:R:3 pbc="F F F"
C        3.00624496       1.89637320       0.06143356
C        3.64724496       2.23937320      -1.27556644
H        3.52924496       2.39637320       0.87843356
H        1.97724496       2.24237320       0.02443356
H        2.99724496       0.82037320       0.23343356
H        3.14224496       1.66437320      -2.05156644
H        4.71885496       1.99108220      -1.27268644
H        3.50125496       3.30467320      -1.50756644
C       -0.12075504       0.61937320       1.61343356
C        0.05524496      -0.19362680       2.91743356
C       -0.71775504      -0.15562680       0.45843356
C       -2.09575504      -0.36162680       0.37643356
C        0.09524496      -0.66862680      -0.54656644
C       -2.65075504      -1.08662680      -0.67856644
C       -0.46275504      -1.38662680      -1.60956644
C       -1.83375504      -1.59162680      -1.67356644
H       -0.77175504       1.47037320       1.81943356
H        0.83324496       1.03037320       1.32143356
H        0.28524496       0.52537320       3.70643356
H       -2.74775504       0.04337320       1.13143356
H        1.16524496      -0.52262680      -0.50756644
H       -3.71375504      -1.26162680      -0.72156644
H        0.17624496      -1.78362680      -2.38656644
H       -2.26175504      -2.15062680      -2.49556644
H        0.90188496      -0.89364380       2.86104356
H       -0.89319504      -0.66349680       3.21690356
