21
Properties=species:S:1:pos:R:3 pbc="F F F"
C       -1.29920251      -2.89472705      -1.85007439
C        0.65079749       0.17027295      -1.86307439
C       -0.86720251      -0.70872705      -0.53407439
C       -0.65120251      -1.57572705      -1.56007439
N       -0.03920251       0.37127295      -0.74107439
N        0.29179749      -0.99472705      -2.38607439
H       -0.00520251       1.20427295      -0.16307439
H        1.35879749       0.85927295      -2.30407439
H       -1.57020251      -0.84772705       0.27592561
H       -1.50920251      -2.94672705      -2.91807439
H       -2.24520251      -2.93872705      -1.31507439
H       -0.69741451      -3.76533805      -1.55026139
C        0.89779749       1.36727295       2.26992561
C        1.36079749       1.74727295       3.68292561
O       -0.36620251       1.92927295       1.97192561
H        1.62879749       1.71927295       1.54092561
H        0.80879749       0.28327295       2.22492561
H        2.42279749       1.54727295       3.78192561
H       -1.03220251       1.50727295       2.52992561
H        0.82365549       1.16950695       4.44951861
H        1.22525949       2.82292695       3.86893061
