18
Properties=species:S:1:pos:R:3 pbc="F F F"
C       -1.05724918      -0.25973688      -2.28706748
C        0.14875082       0.48926312      -1.70506748
O        0.52175082       0.25026312      -0.52406748
O        0.72375082       1.32426312      -2.43206748
H       -1.95824918       0.18526312      -1.86106748
H       -1.00024918      -1.30773688      -1.99506748
H       -1.14718918      -0.19904688      -3.38170748
C       -0.00724918       0.02126312       2.27393252
C       -1.44124918      -0.56873688       2.13193252
N        0.99875082      -1.08473688       2.25793252
H        0.17975082       0.75426312       1.48993252
H        0.04875082       0.55326312       3.22893252
H       -2.14024918       0.26726312       2.20893252
H       -1.63024918      -1.22773688       2.98193252
H        1.02075082      -1.52173688       1.34393252
H        1.92675082      -0.72273688       2.43493252
H        0.79875082      -1.78873688       2.95693252
H       -1.66046918      -1.12135688       1.20643252
