19
Properties=species:S:1:pos:R:3 pbc="F F F"
C        2.02298981       0.66713142       0.29667815
C        2.76298981       1.99613142       0.40967815
H        1.54398981       0.57913142      -0.68132185
H        2.71798981      -0.16386858       0.43567815
H        1.28098981       0.64713142       1.09267815
H        3.13398981       2.09813142       1.43067815
H        2.06918981       2.82402542       0.20176315
H        3.63759981       1.99613142      -0.25744685
C       -1.10901019      -1.14186858       0.06067815
C       -1.35701019      -0.95486858      -1.42232185
C       -2.38701019      -0.65286858       0.67467815
H       -0.28301019      -0.53186858       0.38367815
H       -0.94201019      -2.19886858       0.25167815
H       -0.42201019      -0.77186858      -1.95232185
H       -1.87201019      -1.82486858      -1.83432185
H       -2.37101019      -0.43486858       1.72067815
H       -3.07701019      -1.36786858       0.34267815
H       -2.01932019      -0.07728858      -1.45682485
H       -2.59841019       0.25565142       0.09167315
