32
Properties=species:S:1:pos:R:3 pbc="F F F"
C       -1.70104519       0.64291105       5.56045755
C       -0.10404519       0.47091105       2.12845755
C       -0.85904519       0.87791105       3.21945755
C        0.66395481      -0.67908895       2.26745755
C       -0.87604519       0.12991105       4.40445755
C        0.68495481      -1.43108895       3.45245755
C       -0.09704519      -1.01808895       4.53445755
O        1.45895481      -1.12208895       1.27045755
H       -0.13004519       1.03591105       1.21445755
H       -1.46604519       1.77291105       3.14645755
H        1.92795481      -1.91708895       1.54145755
H        1.29395481      -2.32108895       3.54145755
H       -2.03704519      -0.18308895       6.18945755
H       -2.58304519       1.13391105       5.15045755
H       -0.10004519      -1.58508895       5.45445755
H       -1.05230519       1.32268105       6.13233755
C       -1.03404519      -0.12108895      -5.99754245
C        0.61695481       0.48391105      -2.08654245
C        1.06695481       1.21191105      -3.17954245
C       -0.39604519      -0.43608895      -2.25754245
C        0.54595481       1.00891105      -4.43354245
C       -0.95104519      -0.61808895      -3.52954245
C       -0.46904519       0.08991105      -4.61354245
O        1.14895481       0.66291105      -0.84754245
H        0.91895481      -0.06808895      -0.24654245
H        1.55495481       2.13291105      -3.08154245
H       -0.77404519      -0.99708895      -1.41854245
H        0.87495481       1.62091105      -5.26754245
H       -1.75504519      -1.33208895      -3.66654245
H       -1.53804519      -1.08508895      -6.03854245
H       -0.16804519      -0.20708895      -6.65754245
H       -1.70154519       0.66326105      -6.38387245
