23
Properties=species:S:1:pos:R:3 pbc="F F F"
C        2.40416664      -1.04736950       0.58814429
C        2.70116664      -2.50836950       0.93314429
H        1.86816664      -0.97836950      -0.35985571
H        1.79216664      -0.59736950       1.36814429
H        3.31716664      -0.45636950       0.53814429
H        3.28516664      -2.52336950       1.85514429
H        3.29894264      -2.98229550       0.14064429
H        1.77243964      -3.07477150       1.09640429
C       -1.85283336      -0.90036950      -1.91285571
C       -1.35783336      -0.24336950       0.48714429
C       -1.23083336      -0.01336950      -0.87785571
C       -0.77083336       0.62063050       1.42414429
C       -0.05483336       1.71863050       0.99114429
C       -0.49783336       1.08963050      -1.28085571
C        0.06616664       1.96563050      -0.36385571
H       -1.92083336      -1.09636950       0.83814429
H       -0.86783336       0.42363050       2.48114429
H       -2.18083336      -0.28436950      -2.75185571
H       -2.72483336      -1.36236950      -1.45085571
H        0.40116664       2.38663050       1.70614429
H       -0.38883336       1.29463050      -2.33285571
H        0.61516664       2.83063050      -0.70985571
H       -1.19525936      -1.70248050      -2.27920571
