19
Properties=species:S:1:pos:R:3 pbc="F F F"
C        0.10859217      -1.98185397      -0.07912673
C        0.63659217      -1.29585397      -1.34612673
C        1.01359217      -1.44385397       0.97087327
H        0.23059217      -3.06385397      -0.16212673
H       -0.93440783      -1.72685397       0.11287327
H        0.44359217      -1.93385397      -2.20912673
H        0.17159217      -0.32785397      -1.50412673
H        1.01659217      -2.08185397       1.85587327
H        0.70259217      -0.43785397       1.25287327
H        1.71592217      -1.18687597      -1.16399673
H        2.00152217      -1.39999397       0.48913327
C       -0.84740783       1.56614603      -0.02412673
C       -0.92440783       3.01714603       0.47687327
H       -1.44340783       1.43614603      -0.92712673
H        0.19759217       1.36014603      -0.25212673
H       -1.19440783       0.88214603       0.74987327
H       -0.69640783       3.69314603      -0.34812673
H       -0.15040783       3.15614603       1.22587327
H       -1.90558783       3.27884203       0.89972327
