35
Properties=species:S:1:pos:R:3 pbc="F F F"
C       -0.99103184      -0.50910780       1.80792630
C       -0.99603184      -0.51310780       3.34092630
C       -0.32303184       0.69389220       1.17892630
C       -1.06203184       1.84589220       0.91792630
C        1.03396816       0.67489220       0.84192630
C       -0.47203184       2.96289220       0.33692630
C        1.63896816       1.79289220       0.25792630
C        0.87996816       2.93889220       0.01092630
O        1.44196816       4.04489220      -0.55507370
H       -0.48603184      -1.41010780       1.46392630
H       -2.02203184      -0.56210780       1.45692630
H       -1.49003184      -1.42510780       3.64792630
H       -2.10203184       1.86889220       1.19892630
H        1.62596816      -0.21210780       1.02992630
H       -1.06603184       3.84589220       0.13892630
H        2.68696816       1.77689220      -0.00707370
H        0.79696816       4.74189220      -0.71707370
H       -1.55141184       0.34370220       3.75011630
H        0.03491416      -0.53914780       3.72364630
C       -0.89503184      -3.38510780      -0.74107370
C       -0.45403184      -4.32510780       0.36292630
C        0.06096816      -1.36510780      -1.79607370
N        0.20896816      -2.52710780      -1.18007370
N        1.12096816      -0.66510780      -2.13607370
N       -1.14603184      -0.90010780      -2.06507370
H       -1.28303184      -3.96310780      -1.58407370
H       -1.70203184      -2.77010780      -0.33707370
H       -1.34603184      -4.72610780       0.84092630
H        0.11696816      -3.76310780       1.10292630
H        1.16796816      -2.85510780      -1.04107370
H        2.02896816      -0.96710780      -1.77207370
H        1.02996816       0.23689220      -2.56707370
H       -1.95803184      -1.45810780      -1.86907370
H       -1.25403184      -0.01110780      -2.52807370
H        0.14860316      -5.15941780      -0.02535370
