26
Properties=species:S:1:pos:R:3 pbc="F F F"
C        1.48458744      -1.62375263       3.06341707
C        0.74158744      -0.48575263      -0.46058293
C        0.83458744      -1.28575263       0.67341707
C        1.21958744       0.81624737      -0.43258293
C        1.40458744      -0.78075263       1.83741707
C        1.79758744       1.31524737       0.72641707
C        1.88058744       0.52524737       1.85841707
H        0.33958744      -0.89475263      -1.37358293
H        0.46758744      -2.30175263       0.64441707
H        1.15558744       1.43624737      -1.31758293
H        2.15558744       2.32424737       0.75241707
H        2.41258744      -1.40675263       3.59541707
H        1.52958744      -2.66775263       2.75041707
H        2.32358744       0.92824737       2.75641707
H        0.62771844      -1.47420263       3.73677707
C       -2.47041256       0.25024737      -1.77858293
C       -2.89941256      -0.41175263      -3.04658293
C       -3.01041256       1.65624737      -1.87258293
H       -1.39241256       0.27724737      -1.70358293
H       -2.91241256      -0.26275263      -0.92258293
H       -2.19341256      -0.18075263      -3.84158293
H       -2.93841256      -1.48275263      -2.86858293
H       -2.25441256       2.29424737      -2.33558293
H       -3.25641256       2.04624737      -0.88358293
H       -3.87019856       0.06350737      -3.25080293
H       -3.90576856       1.59372737      -2.50853293
