24
Properties=species:S:1:pos:R:3 pbc="F F F"
C       -0.38891458      -1.90153077      -1.39589873
C        0.81708542       0.03046923      -0.33089873
C        0.14908542      -0.49353077      -1.42589873
C        1.31808542       1.32546923      -0.35889873
C        0.00608542       0.29746923      -2.56389873
C        1.15508542       2.11246923      -1.48489873
C        0.50608542       1.59546923      -2.59189873
H        0.97308542      -0.57553077       0.55010127
H        1.83508542       1.72246923       0.50210127
H        0.04108542      -2.42053077      -0.54189873
H       -0.06391458      -2.42553077      -2.29289873
H       -0.46691458      -0.09753077      -3.45089873
H        1.52008542       3.12646923      -1.49389873
H        0.37608542       2.20146923      -3.47489873
H       -1.48251658      -1.96674577      -1.29699873
C       -1.28691458      -0.57453077       2.47810127
C       -0.77191458       0.32746923       3.60410127
O       -0.87691458      -1.91653077       2.66610127
H       -2.37791458      -0.53453077       2.46810127
H       -0.93391458      -0.20153077       1.52110127
H       -1.03691458       1.35546923       3.35210127
H       -1.42591458      -2.49353077       2.09710127
H        0.32151972       0.24807023       3.69409127
H       -1.27895258       0.07935923       4.54822127
