12
Properties=species:S:1:pos:R:3 pbc="F F F"
C       -0.28077911      -2.00315494      -1.07591594
O        0.41722089      -1.40115494       0.01008406
H        0.42722089      -2.03015494       0.75508406
H       -0.07477911      -3.07415494      -1.08491594
H       -1.36041911      -1.82476094      -0.96388494
H        0.09290089      -1.56087894      -2.01119794
C       -0.54077911       2.07184506       0.93208406
O        0.38422089       1.43184506       0.07408406
H        0.32722089       0.46484506       0.19308406
H       -0.13577911       3.03784506       1.23908406
H       -0.69877911       1.45584506       1.81808406
H       -1.50866911       2.22581106       0.43259806
