16
Properties=species:S:1:pos:R:3 pbc="F F F"
C        1.22578642      -0.46276550      -0.79218866
C        2.37278642      -0.81476550      -1.74518866
H        1.40678642       0.48023450      -0.27918866
H        0.30278642      -0.35776550      -1.36418866
H        1.09078642      -1.25876550      -0.05718866
H        2.49678642       0.02123450      -2.43218866
H        3.31356642      -0.97335550      -1.19765866
H        2.11803642      -1.69159550      -2.35860566
C       -1.72121358      -0.06276550       1.57481134
C       -1.88121358       1.33723450       0.96581134
H       -2.20121358      -0.81276550       0.94781134
H       -0.66021358      -0.30476550       1.64881134
H       -2.15621358      -0.08676550       2.57381134
H       -1.52421358       1.33023450      -0.06518866
H       -1.22321358       1.98723450       1.53981134
H       -2.91775358       1.70332650       1.00529134
