24
Properties=species:S:1:pos:R:3 pbc="F F F"
C       -3.33413863       2.31158528      -0.15179904
C       -2.72813863       1.32658528       0.82520096
O       -2.03413863       1.69058528       1.79620096
N       -2.99213863       0.07258528       0.58620096
H       -3.69813863       3.18058528       0.39420096
H       -4.19313863       1.84958528      -0.63979904
H       -2.61913863      -0.61241472       1.22520096
H       -3.55913863      -0.18141472      -0.19979904
H       -2.59379163       2.61188128      -0.90790904
C        2.10686137      -3.08341472       0.49820096
C        0.67786137       0.37858528      -0.24779904
C        1.55886137       0.86758528      -1.20679904
C        0.84186137      -0.90441472       0.28220096
C        1.88986137      -1.74141472      -0.13479904
C        2.58186137       0.03558528      -1.62579904
C        2.74986137      -1.25941472      -1.12479904
H       -0.11313863       1.01158528       0.11920096
H        1.45586137       1.86858528      -1.59379904
H        0.16186137      -1.24641472       1.05020096
H        3.29586137       0.40958528      -2.34379904
H        1.69086137      -3.05141472       1.50620096
H        3.18086137      -3.22441472       0.60320096
H        3.58586137      -1.85641472      -1.46079904
H        1.66746837      -3.95061872      -0.01647904
