29
Properties=species:S:1:pos:R:3 pbc="F F F"
C        0.37778374       3.04820009       1.22207199
C        1.39278374       3.50420009       2.28107199
C       -0.24721626       4.16320009       0.37707199
H        0.87378374       2.33820009       0.55807199
H       -0.43221626       2.53120009       1.73607199
H        0.88578374       4.16020009       2.99007199
H        0.54378374       4.72920009      -0.11392801
H        2.24243974       4.02899009       1.81989199
H        1.75682074       2.64052009       2.85686199
H       -0.87344266       3.72180009      -0.41223801
H       -0.84904576       4.85756009       0.98177199
C       -1.51921626      -0.11679991       0.23707199
C       -2.38221626      -0.85179991       1.24907199
C       -0.49321626      -0.99979991      -0.41692801
C        0.70078374      -1.28579991       0.21807199
C       -0.75021626      -1.57679991      -1.66592801
C        1.62678374      -2.14179991      -0.37892801
C        0.18278374      -2.39679991      -2.26592801
C        1.35678374      -2.69679991      -1.61392801
H       -2.15221626       0.34320009      -0.52392801
H       -0.98821626       0.67720009       0.75007199
H       -1.72121626      -1.37879991       1.94007199
H        0.91478374      -0.85879991       1.18807199
H       -1.69021626      -1.38379991      -2.16292801
H        2.54778374      -2.38879991       0.13207199
H       -0.02621626      -2.84179991      -3.22792801
H        2.05478374      -3.39279991      -2.05292801
H       -3.04458126      -1.56714991       0.73962199
H       -2.96933726      -0.12043991       1.82387199
