27
Properties=species:S:1:pos:R:3 pbc="F F F"
C       -1.64161923       3.38065392      -1.64379981
C       -1.74961923       4.88065392      -1.61779981
H       -0.99761923       3.06265392      -0.83579981
H       -2.63061923       2.94165392      -1.51379981
H       -1.22361923       3.06465392      -2.59879981
H       -2.17761923       5.18565392      -0.66379981
H       -2.41161923       5.18765392      -2.42579981
H       -0.78793923       5.39915392      -1.74564981
C        2.30638077       0.74965392       1.92320019
C        0.53138077      -0.51134608       0.43820019
C        1.61638077      -0.48634608       1.40620019
C        0.12938077      -1.87334608       0.27520019
C        1.82538077      -1.78534608       1.78120019
C       -1.16561923       0.09165392      -1.20879981
C       -1.53761923      -1.26234608      -1.33979981
C       -0.14261923       0.47565392      -0.31879981
C       -0.89661923      -2.25934608      -0.59079981
N        0.93038077      -2.62934608       1.10620019
H       -1.66461923       0.85365392      -1.79179981
H       -2.32761923      -1.53434608      -2.02579981
H        0.12438077       1.52165392      -0.24179981
H       -1.16061923      -3.30934608      -0.66079981
H        2.22738077       1.51265392       1.14020019
H        3.35738077       0.50665392       2.06820019
H        2.59738077      -2.01334608       2.51320019
H        0.86538077      -3.63834608       1.19820019
H        1.91819077       1.11205392       2.88651019
