16
Properties=species:S:1:pos:R:3 pbc="F F F"
C        0.51898125       1.92821244       0.29313076
C        0.76298125       1.43321244       1.71213076
H        0.35098125       3.00621244       0.29313076
H        1.38898125       1.70521244      -0.32686924
H       -0.35201875       1.43221244      -0.13486924
H        0.96398125       0.36521244       1.67113076
H       -0.13135875       1.61770144       2.32541376
H        1.63919125       1.93732044       2.14588176
C       -0.90001875      -1.58178756      -0.28986924
C       -0.38401875      -1.78278756      -1.71286924
H       -1.25701875      -2.52878756       0.12113076
H       -0.09901875      -1.20278756       0.34313076
H       -1.72101875      -0.86378756      -0.29586924
H       -0.08501875      -0.81278756      -2.10786924
H       -1.18018875      -2.19067556      -2.35297424
H        0.50723125      -2.42750856      -1.71143124
