22
Properties=species:S:1:pos:R:3 pbc="F F F"
C        2.49248134       0.57732097       0.11566182
C        0.02048134       0.15032097      -0.14133818
C        1.23848134      -0.20567903       0.42666182
C       -1.13451866      -0.56667903       0.11866182
C       -1.08251866      -1.65667903       0.97366182
C        1.27648134      -1.30767903       1.28066182
C        0.12248134      -2.03167903       1.55366182
O       -2.20951866      -2.36567903       1.23466182
H       -0.06351866       1.04432097      -0.66333818
H       -2.08051866      -0.24167903      -0.27633818
H        3.11648134       0.64832097       1.00766182
H        2.19948134       1.59132097      -0.16133818
H        2.20848134      -1.60567903       1.73966182
H       -2.90051866      -2.21467903       0.55366182
H        0.14048134      -2.89167903       2.18766182
H        3.07479234       0.14167097      -0.70963818
C       -0.34351866       3.87332097      -2.48533818
O       -0.04551866       2.53032097      -2.18333818
H        0.47248134       2.14232097      -2.90333818
H        0.58548134       4.44632097      -2.47933818
H       -0.99351866       4.28132097      -1.72033818
H       -0.82741766       3.95566097      -3.46974818
