16
Properties=species:S:1:pos:R:3 pbc="F F F"
C        1.04275924       1.43386759      -0.29046375
C        2.33575924       1.53086759       0.51353625
H        0.98875924       0.47586759      -0.81046375
H        0.18775924       1.52586759       0.38053625
H        1.00175924       2.24286759      -1.02146375
H        2.35275924       2.50286759       1.01053625
H        3.21294924       1.45187559      -0.14548175
H        2.35167924       0.75894059       1.29703825
C       -1.91924076      -0.95413241       0.38953625
C       -1.46124076      -2.02013241      -0.61546375
H       -2.85424076      -1.25413241       0.86353625
H       -1.16224076      -0.79413241       1.15753625
H       -2.06024076       0.00986759      -0.10046375
H       -0.52424076      -1.67613241      -1.05846375
H       -2.20637076      -2.14575241      -1.41483875
H       -1.26494076      -2.98445241      -0.12398875
