27
Properties=species:S:1:pos:R:3 pbc="F F F"
C        1.22310667       3.41167555      -0.49135002
C        0.75910667      -0.37332445      -0.52135002
C        0.04010667      -0.56532445      -1.70635002
C        1.12610667       0.91167555      -0.12835002
C        0.78410667       2.03367555      -0.90035002
C       -0.35289333       0.53767555      -2.43735002
C        0.02010667       1.83467555      -2.04735002
O       -0.38789333      -1.78832445      -2.14135002
H        1.03610667      -1.23132445       0.06864998
H        1.70110667       1.04167555       0.77964998
H       -0.95089333       0.39167555      -3.31535002
H       -0.93489333      -1.72732445      -2.92735002
H        1.99510667       3.73267555      -1.18635002
H        1.69010667       3.32967555       0.48164998
H       -0.27589333       2.68267555      -2.64835002
H        0.45232967       4.19618555      -0.47038002
C       -0.95989333      -1.51932445       2.68464998
C       -1.40689333      -2.93332445       3.01464998
C       -0.47489333      -0.80732445       3.94764998
H       -0.15289333      -1.57232445       1.95464998
H       -1.77689333      -0.94732445       2.24064998
H       -2.03789333      -2.89732445       3.90364998
H        0.05810667      -1.50632445       4.59164998
H       -0.52121533      -3.54689445       3.23625998
H       -2.06044333      -3.29511445       2.20719998
H        0.23677267      -0.00453445       3.70463998
H       -1.33484033      -0.41740445       4.51196998
