16
Properties=species:S:1:pos:R:3 pbc="F F F"
C       -0.79397184       1.82041945       0.83607583
C       -2.16497184       1.28441945       1.26707583
H       -0.00197184       1.18741945       1.23707583
H       -0.73997184       1.82741945      -0.25292417
H       -0.65897184       2.83941945       1.20407583
H       -2.94297184       1.93741945       0.90207583
H       -2.19879184       1.24771845       2.36594583
H       -2.35414184       0.28675745       0.84412583
C        0.91602816      -1.04158055      -1.03792417
C        2.05002816      -2.05758055      -1.06392417
H        1.02502816      -0.31058055      -1.83792417
H       -0.03297184      -1.56058055      -1.17592417
H        0.90102816      -0.53458055      -0.07392417
H        2.09802816      -2.50558055      -2.05792417
H        1.78902816      -2.84858055      -0.36392417
H        3.03192816      -1.63390555      -0.80628417
