15
Properties=species:S:1:pos:R:3 pbc="F F F"
C        1.93659021       0.60020998      -1.17072171
C        1.58959021       1.39220998      -2.44772171
H        1.57459021       1.11620998      -0.28272171
H        1.45559021      -0.37479002      -1.21772171
H        3.01659021       0.46120998      -1.09972171
H        0.50859021       1.53620998      -2.49372171
H        1.88059021       0.75520998      -3.28172171
H        2.09631021       2.36545998      -2.52523771
C       -0.12440979      -0.75179002       2.10327829
C       -0.93940979      -0.50379002       0.85927829
O       -1.15340979      -1.41979002       0.02827829
O       -1.37940979       0.64920998       0.69727829
H       -0.19940979       0.08620998       2.79527829
H        0.91959021      -0.80679002       1.79027829
H       -0.39215979      -1.68821002       2.61457229
