30
Properties=species:S:1:pos:R:3 pbc="F F F"
C       -3.77641035      -1.69144920       3.72333773
C       -1.54441035       0.60055080       0.85533773
C       -0.96041035       0.28055080       2.05933773
C       -2.83741035       0.18455080       0.58133773
C       -1.66341035      -0.46844920       3.00533773
C       -3.53841035      -0.56044920       1.52233773
C       -2.96841035      -0.88844920       2.74433773
H       -0.99741035       1.18555080       0.12933773
H        0.04558965       0.61555080       2.27233773
H       -3.29141035       0.39955080      -0.37066227
H       -1.19441035      -0.64344920       3.94433773
H       -4.54241035      -0.88944920       1.29433773
H       -4.16141035      -2.56644920       3.21133773
H       -4.63041035      -1.07444920       4.00633773
H       -3.26344035      -2.00153320       4.64567773
C        4.75758965       1.07555080      -2.71766227
C        0.78258965      -0.14144920      -1.65166227
C        0.98558965       0.87455080      -2.56566227
C        1.86658965      -0.75344920      -1.05866227
C        2.26858965       1.27355080      -2.89366227
C        3.15358965      -0.36944920      -1.40066227
C        3.36458965       0.66155080      -2.30866227
H       -0.22041035      -0.45944920      -1.40766227
H        0.13658965       1.34655080      -3.02766227
H        1.70758965      -1.54444920      -0.33966227
H        2.40858965       2.06755080      -3.61366227
H        3.99458965      -0.85844920      -0.93666227
H        4.71658965       1.40855080      -3.75766227
H        5.41458965       0.20455080      -2.68966227
H        5.18486965       1.88384080      -2.10602227
