27
Properties=species:S:1:pos:R:3 pbc="F F F"
C        0.58269876       2.20562186       1.08071662
C        0.75269876       2.43662186      -0.40428338
C        1.73869876       2.96662186       1.71071662
H        0.61969876       1.14462186       1.32771662
H       -0.36230124       2.63962186       1.41071662
H        1.36269876       1.64662186      -0.83528338
H       -0.22330124       2.46062186      -0.88628338
H        2.64069876       2.36162186       1.64471662
H        1.53069876       3.22962186       2.74871662
H        1.26264876       3.40949186      -0.46326738
H        1.83877876       3.85870186       1.07496062
C       -0.81530124      -2.09737814       2.38971662
C       -1.58230124      -0.73537814       0.41671662
C       -0.61230124      -1.54137814       1.00171662
C       -1.42330124      -0.25237814      -0.88228338
C        0.53469876      -1.84337814       0.27071662
C       -0.26430124      -0.54137814      -1.59628338
C        0.71769876      -1.32537814      -1.00928338
O       -0.05230124      -0.07637814      -2.86328338
H       -2.48230124      -0.49137814       0.96671662
H       -2.18130124       0.36662186      -1.33728338
H       -1.71130124      -1.66037814       2.83371662
H        0.03769876      -1.78137814       2.99171662
H        1.30669876      -2.45637814       0.71571662
H        1.63269876      -1.54537814      -1.53928338
H        0.87469876      -0.10437814      -3.11528338
H       -0.89552124      -3.19399614       2.42123262
