27
Properties=species:S:1:pos:R:3 pbc="F F F"
C       -1.15657404       0.87578221      -3.83335369
C       -0.19057404       0.86678221      -0.22035369
C       -0.67757404       0.18478221      -1.36635369
C       -0.70857404       1.13478221      -2.44435369
C       -0.19857404       2.29378221      -1.95235369
C       -0.49757404      -1.06721779       1.12564631
C       -0.10357404       0.25578221       1.01964631
C       -0.99557404      -1.76221779       0.01464631
C       -1.09857404      -1.14521779      -1.22935369
N        0.10342596       2.14478221      -0.61635369
H       -0.42357404      -1.57421779       2.07764631
H        0.29742596       0.78178221       1.85764631
H       -1.30557404      -2.78521779       0.13664631
H       -1.50457404      -1.68121779      -2.07635369
H        0.48642596       2.87878221      -0.03035369
H       -0.06357404       3.20578221      -2.52635369
H       -1.27857404       1.82278221      -4.36235369
H       -2.13557404       0.40678221      -3.77135369
H       -0.48113504       0.21618221      -4.39789969
C        2.45142596      -1.76121779       3.50964631
C        2.37042596      -1.76421779       5.03964631
H        2.36942596      -0.74621779       3.12364631
H        3.41442596      -2.15821779       3.19664631
H        1.66142596      -2.38421779       3.09164631
H        3.12042596      -1.06721779       5.41564631
H        1.38557196      -1.45317779       5.41821531
H        2.61612686      -2.76441779       5.42595531
