16
Properties=species:S:1:pos:R:3 pbc="F F F"
C       -0.73260486      -1.23950185       1.66873484
C        0.02339514      -0.27650185       2.57073484
H       -1.24960486      -0.69550185       0.88173484
H       -0.03160486      -1.93250185       1.21873484
H       -1.45960486      -1.80750185       2.24973484
H        0.73839514       0.27649815       1.96373484
H       -0.67759486       0.42593815       3.04527584
H        0.58818514      -0.82467185       3.33918984
C        0.21839514       0.54649815      -1.40326516
C        0.48439514       0.96249815      -2.83826516
H        0.72339514      -0.39150185      -1.17526516
H        0.60639514       1.31249815      -0.72926516
H       -0.85160486       0.43649815      -1.23226516
H        1.56339514       0.96649815      -3.00926516
H        0.13039514       1.98949815      -2.93526516
H       -0.00365486       0.32774815      -3.59252516
