24
Properties=species:S:1:pos:R:3 pbc="F F F"
C        0.36208914       1.57330831       0.74670371
C        1.82108914       1.21630831       0.92070371
C        0.02508914       1.98030831      -0.70029629
O        0.91008914       2.12030831      -1.58829629
O       -1.19791086       2.14530831      -0.88929629
H       -0.28091086       0.74730831       1.02470371
H        0.10808914       2.39330831       1.42070371
H        2.20008914       0.73530831       0.02070371
H        1.94584914       0.55522831       1.79099171
H        2.37790914       2.14242831       1.12626671
C       -0.36291086      -2.00469169       0.63170371
C       -0.41391086      -3.34569169       1.37870371
C        0.61608914      -2.03769169      -0.52129629
C       -1.77191086      -1.67069169       0.10170371
H       -0.03991086      -1.25769169       1.34370371
H        0.60008914      -3.67769169       1.59770371
H       -0.86791086      -4.09069169       0.72470371
H        0.32308914      -2.80569169      -1.23729629
H        0.63008914      -1.07069169      -1.02329629
H        1.61708914      -2.25269169      -0.15029629
H       -2.45291086      -1.43169169       0.91570371
H       -1.71691086      -0.79369169      -0.54229629
H       -2.16691086      -2.50469169      -0.47929629
H       -0.99276086      -3.28788169       2.31229171
