16
Properties=species:S:1:pos:R:3 pbc="F F F"
C       -1.38849250       0.37898045      -0.94117060
C       -1.45249250      -0.25801955      -2.34917060
H       -1.23249250      -0.39501955      -0.18717060
H       -0.56349250       1.08598045      -0.89617060
H       -2.30749250       0.92298045      -0.72217060
H       -1.75049250       0.51298045      -3.05017060
H       -2.17717250      -1.08478755      -2.38511660
H       -0.46979250      -0.63481755      -2.66905260
C        1.45150750      -0.77801955       1.39182940
C        1.39350750       0.65498045       1.90182940
H        2.33650750      -1.28201955       1.78382940
H        0.56350750      -1.31901955       1.72382940
H        1.46550750      -0.80301955       0.30182940
H        0.56250750       1.15098045       1.40282940
H        2.32389750       1.19550545       1.67333740
H        1.20098750       0.67501945       2.98466540
