23
Properties=species:S:1:pos:R:3 pbc="F F F"
C        3.51263114       0.95881227      -0.45031704
C        3.67363114       2.28181227      -1.20031704
H        2.48563114       0.84481227      -0.10631704
H        3.74063114       0.12381227      -1.11431704
H        4.15463114       0.91281227       0.41368296
H        2.85063114       2.38781227      -1.90231704
H        3.65221114       3.13725227      -0.50910704
H        4.61297114       2.28325227      -1.77271704
C       -3.11236886      -0.09718773       1.70468296
C       -0.18836886       0.44381227      -0.67331704
C       -1.28536886       0.68781227       0.15868296
C        0.29263114      -0.85618773      -0.83231704
C       -1.91136886      -0.36118773       0.83468296
C       -0.32836886      -1.91018773      -0.15931704
C       -1.42636886      -1.66018773       0.67068296
H        0.28563114       1.26781227      -1.19031704
H       -1.64836886       1.69881227       0.27568296
H        1.14563114      -1.05118773      -1.46831704
H        0.04163114      -2.92018773      -0.27631704
H       -2.84836886       0.66781227       2.43668296
H       -3.35936886      -1.00418773       2.25568296
H       -1.90536886      -2.48118773       1.18468296
H       -3.99349886       0.24160227       1.14003296
