23
Properties=species:S:1:pos:R:3 pbc="F F F"
C       -0.52274503      -2.53383719      -1.85406517
C       -0.96274503      -3.95583719      -2.18206517
H       -1.05874503      -2.17383719      -0.97706517
H        0.54425497      -2.52783719      -1.63906517
H       -0.71674503      -1.87083719      -2.69606517
H       -0.46574503      -4.27083719      -3.09606517
H       -2.05381703      -3.99661819      -2.31585517
H       -0.66199503      -4.62801619      -1.36492517
C       -1.07974503       1.62716281      -1.32606517
C       -0.64374503       0.19916281       0.72093483
C       -0.28274503       1.28216281      -0.09206517
C        0.12925497      -0.13583719       1.83193483
C        0.84325497       2.03716281       0.23693483
C        1.26525497       0.62416281       2.14893483
C        1.62125497       1.71416281       1.34693483
H       -1.51474503      -0.39283719       0.48093483
H       -0.14774503      -0.97683719       2.45093483
H       -1.52674503       0.70916281      -1.70706517
H       -0.39574503       1.98716281      -2.09306517
H        1.12925497       2.87316281      -0.38506517
H        1.86225497       0.36616281       3.00993483
H        2.49925497       2.29816281       1.58593483
H       -1.86955703       2.37465081      -1.16035517
