15
Properties=species:S:1:pos:R:3 pbc="F F F"
C        0.50897676       1.80479642      -1.77686248
C        0.84397676       1.03479642      -0.46486248
O        1.10497676      -0.19020358      -0.46886248
O        0.71197676       1.65879642       0.62013752
H        0.89197676       2.82479642      -1.69786248
H       -0.57902324       1.87479642      -1.85086248
H        0.87818676       1.37563642      -2.71999248
C       -2.07602324      -2.17520358       0.52213752
N       -0.89902324      -1.81320358       1.35013752
H       -0.99802324      -0.89120358       1.75913752
H       -0.76702324      -2.47020358       2.11113752
H       -0.04302324      -1.79820358       0.80213752
H       -2.99902324      -2.14120358       1.10713752
H       -1.96102324      -3.22220358       0.21813752
H       -2.15321324      -1.58242358      -0.40125248
