19
Properties=species:S:1:pos:R:3 pbc="F F F"
C        1.67968546      -3.48543943       1.48772854
C       -0.61131454      -0.66443943       1.59772854
C        1.04568546      -1.28243943       0.28872854
C        0.91668546      -2.21243943       1.25972854
N        0.09768546      -0.32143943       0.54172854
N       -0.14331454      -1.81943943       2.05372854
H       -0.02731454       0.54756057       0.02672854
H       -1.42931454      -0.09243943       2.02272854
H        1.76868546      -1.29143943      -0.51727146
H        1.89468546      -3.58143943       2.55072854
H        2.62468546      -3.43043943       0.94772854
H        1.11721946      -4.37931943       1.18014154
C       -0.74331454       1.19756057      -2.61827146
C       -0.69831454       2.33356057      -1.61727146
O       -0.33231454       2.10156057      -0.47627146
O       -1.04931454       3.46356057      -1.95027146
H       -1.35931454       0.41056057      -2.17627146
H        0.24468546       0.76856057      -2.75927146
H       -1.20606454       1.48471057      -3.57399546
