28
Properties=species:S:1:pos:R:3 pbc="F F F"
C       -2.11793875      -3.03270613       0.48044608
C        0.79706125      -0.84270613      -0.49155392
C       -0.49593875      -1.36070613      -0.76355392
C       -0.82193875      -2.28970613       0.29644608
C        0.23706125      -2.30070613       1.14244608
C        1.43506125       0.09029387      -1.32155392
C        0.77406125       0.52929387      -2.45255392
C       -1.15193875      -0.90270613      -1.92455392
C       -0.50693875       0.03729387      -2.75355392
N        1.20706125      -1.43370613       0.68144608
H        2.09106125      -1.24870613       1.14144608
H        2.42306125       0.44529387      -1.05755392
H        0.22006125      -2.93170613       2.02444608
H        1.24506125       1.25129387      -3.10455392
H       -2.14093875      -1.25870613      -2.20055392
H       -1.88793875      -3.96470613       0.99244608
H       -2.49893875      -3.26370613      -0.51955392
H       -1.01993875       0.37829387      -3.64155392
H       -2.84153875      -2.48538613       1.10240608
C       -0.96293875       3.42329387       1.08344608
C        0.24706125       2.61029387       1.51044608
O        1.34106125       3.13929387       1.62344608
N        0.05106125       1.34529387       1.81144608
H        0.82906125       0.76929387       2.10344608
H       -0.87893875       0.94729387       1.74144608
H       -1.68593875       2.75629387       0.61044608
H       -0.63793875       4.16529387       0.35244608
H       -1.39278875       3.96611387       1.93817608
