27
Properties=species:S:1:pos:R:3 pbc="F F F"
C       -2.92377272       0.00056418      -2.91975477
C       -0.32477272       1.14056418      -0.38475477
C        0.75322728       0.32056418      -0.71275477
C       -1.50877272       1.04656418      -1.11575477
C       -1.62977272       0.12856418      -2.15775477
C        0.64522728      -0.59243582      -1.74975477
C       -0.54277272      -0.69243582      -2.46175477
O        1.93322728       0.41456418      -0.03675477
H       -0.23077272       1.86156418       0.41524523
H       -2.33577272       1.69956418      -0.87375477
H        1.48922728      -1.21343582      -2.00375477
H        2.61022728      -0.15043582      -0.42475477
H       -2.72477272      -0.03343582      -3.99175477
H       -3.51677272       0.87956418      -2.70375477
H       -0.62477272      -1.40643582      -3.27075477
H       -3.51503472      -0.87876582      -2.62448477
C        0.55022728      -0.17943582       3.06724523
C        1.05122728      -1.47043582       2.45924523
N        1.22322728       0.05656418       4.36924523
H        0.79022728       0.64056418       2.38024523
H       -0.53877272      -0.21843582       3.18024523
H        2.11522728      -1.58843582       2.67424523
H        0.95722728      -1.43843582       1.37724523
H        2.22822728       0.12856418       4.26224523
H        0.90622728       0.92356418       4.78824523
H        1.03322728      -0.68343582       5.03524523
H        0.50292028      -2.33816582       2.85472523
