30
Properties=species:S:1:pos:R:3 pbc="F F F"
C       -1.71876411       3.08851129      -1.59962750
C       -2.24076411       1.70151129       0.43637250
C       -1.29376411       2.31651129      -0.38662750
C       -1.84876411       1.05651129       1.61937250
C       -0.48576411       1.02351129       1.98337250
C        0.07123589       2.26851129      -0.03462750
C        0.47123589       1.62851129       1.14737250
H       -3.28776411       1.74251129       0.17637250
H       -2.58676411       0.60651129       2.26537250
H       -2.80576411       3.07351129      -1.69962750
H       -1.29476411       2.59551129      -2.46862750
H       -0.17676411       0.52951129       2.89437250
H        0.82023589       2.71851129      -0.66862750
H        1.51823589       1.59051129       1.41137250
H       -1.36608411       4.12998129      -1.56867850
C       -0.35376411      -1.06348871      -1.38662750
C       -0.14176411      -1.53048871      -2.85762750
C        0.65123589      -1.61848871      -0.39462750
C        0.44823589      -2.35048871       0.73637250
C        2.61823589      -2.04648871       0.50237250
N        2.02123589      -1.44048871      -0.52962750
N        1.69423589      -2.60648871       1.27937250
H       -0.28176411       0.01751129      -1.35662750
H       -1.33476411      -1.35048871      -1.02862750
H        0.87923589      -1.31448871      -3.17062750
H       -0.50676411      -2.64448871       1.14237250
H        3.67623589      -2.05648871       0.69337250
H        1.86223589      -3.09248871       2.16137250
H       -0.86626411      -1.00748871      -3.49915950
H       -0.32265411      -2.61435871      -2.90775250
