19
Properties=species:S:1:pos:R:3 pbc="F F F"
C        1.19943586       1.08279920      -0.53511991
C        1.48643586       2.39579920      -1.26111991
C        1.07343586       1.26679920       0.94588009
O        1.72243586       2.13179920       1.53388009
N        0.21443586       0.47679920       1.56688009
H        0.30543586       0.60679920      -0.93311991
H        2.02643586       0.38679920      -0.67811991
H        2.33443586       2.87879920      -0.77011991
H        0.11343586       0.56479920       2.56488009
H       -0.34656414      -0.20320080       1.04888009
H        0.62492886       3.07414920      -1.17368991
H        1.82755486       2.21803920      -2.29166991
C       -2.18356414      -1.89520080      -1.79411991
C       -1.35256414      -1.79620080      -0.51411991
O       -1.81556414      -1.20820080       0.48388009
O       -0.24656414      -2.36520080      -0.47711991
H       -2.73556414      -2.83720080      -1.79911991
H       -1.49556414      -1.92120080      -2.64111991
H       -2.90202514      -1.07123080      -1.91613991
