20
Properties=species:S:1:pos:R:3 pbc="F F F"
C       -0.73777832      -0.22951811      -0.15281955
C       -2.15077832      -0.70051811      -0.47781955
C       -1.25377832       2.47548189      -0.41681955
S       -0.22877832       1.20248189      -1.15381955
H       -0.73377832       0.08648189       0.89118045
H       -0.01577832      -1.02651811      -0.19881955
H       -2.23677832      -0.80851811      -1.55781955
H       -2.84277832       0.08548189      -0.17281955
H       -1.07477832       2.52048189       0.65718045
H       -1.00577832       3.44048189      -0.85981955
H       -2.30677832       2.26448189      -0.60281955
H       -2.46472032      -1.63587811       0.00854045
C        2.42422168      -1.99151811       0.95818045
C        2.22222168      -2.14051811       2.46118045
H        1.62322168      -2.50251811       0.42418045
H        2.41822168      -0.93451811       0.68718045
H        3.38522168      -2.41151811       0.66418045
H        3.09722168      -1.74451811       2.97418045
H        2.07660368      -3.19857811       2.72444045
H        1.35030768      -1.55947811       2.79609045
