23
Properties=species:S:1:pos:R:3 pbc="F F F"
C        2.27143244      -2.41922255       1.10744903
C        1.61043244      -3.76222255       1.41444903
H        3.34043244      -2.46422255       1.31444903
H        2.13643244      -2.17722255       0.05144903
H        1.82343244      -1.63222255       1.71344903
H        2.08143244      -4.49122255       0.75444903
H        1.77653244      -4.09153455       2.45076903
H        0.54185244      -3.74485855       1.15399903
C        0.95243244       1.16777745      -2.26955097
C       -0.28156756      -0.14122255      -0.50455097
C        0.01543244       1.07977745      -1.09155097
C       -1.22156756      -0.24822255       0.52244903
C       -0.64256756       2.19477745      -0.63655097
C       -1.86356756       0.88877745       0.98244903
C       -1.57656756       2.10677745       0.38244903
H        0.19643244      -1.03722255      -0.87255097
H       -1.46056756      -1.21122255       0.94744903
H        0.42143244       1.68677745      -3.06955097
H        1.17943244       0.16477745      -2.63355097
H       -0.46956756       3.14277745      -1.11055097
H       -2.60256756       0.81977745       1.76644903
H       -2.08556756       3.00177745       0.70944903
H        1.89208244       1.70298645      -2.06804097
