25
Properties=species:S:1:pos:R:3 pbc="F F F"
C       -1.42323527      -1.42839610       0.52280535
C       -1.48523527      -1.52939610       2.04480535
C       -2.66723527      -2.02939610      -0.12619465
H       -1.38023527      -0.37639610       0.24680535
H       -0.53123527      -1.93539610       0.14980535
H       -1.57723527      -2.58339610       2.31480535
H       -3.56223527      -1.54439610       0.25880535
H       -2.35275527      -0.97327510       2.42969535
H       -0.54927527      -1.16802310       2.49579935
H       -2.63999527      -1.83501510      -1.20854165
H       -2.75342527      -3.11036670       0.05839635
C        1.13376473       1.16360390      -0.39719465
C        0.75376473       2.47060390      -1.10319465
C        1.35976473       0.04360390      -1.40119465
C        2.38576473       1.37460390       0.44180535
H        0.33476473       0.87960390       0.27880535
H        1.61076473       2.79860390      -1.69019465
H        1.79076473      -0.82039610      -0.89419465
H        0.41476473      -0.27239610      -1.84419465
H        2.03376473       0.37160390      -2.19119465
H        2.65376473       0.44360390       0.93780535
H        3.21876473       1.68560390      -0.18719465
H        2.20776473       2.12060390       1.21580535
H        0.48906873       3.24275990      -0.36582665
H       -0.09119527       2.29944590      -1.78638465
