18
Properties=species:S:1:pos:R:3 pbc="F F F"
C        1.49150314       1.30734878      -0.52681546
C        1.38350314       0.85134878      -1.98581546
C        0.53550314       2.44434878      -0.14281546
H        1.29950314       0.46234878       0.13218454
H        2.51750314       1.62434878      -0.33581546
H        1.67950314       1.67434878      -2.63781546
H       -0.49349686       2.10934878      -0.26181546
H        0.68150314       2.68134878       0.91218454
H        0.36176314       0.53477878      -2.24237646
H        2.10291514       0.04308878      -2.18372646
H        0.67001214       3.36072878      -0.73623546
C       -0.96949686      -1.26665122       2.09018454
C       -0.83549686      -1.14565122       0.58118454
O       -0.02349686      -1.89165122      -0.01681546
O       -1.54649686      -0.29665122       0.00218454
H       -1.95449686      -1.66865122       2.33418454
H       -0.88049686      -0.27465122       2.53918454
H       -0.19603686      -1.91844122       2.52253954
