23
Properties=species:S:1:pos:R:3 pbc="F F F"
C       -1.77559003      -0.37651263       0.88460810
C        0.24540997       0.85948737       0.10860810
C       -0.30959003      -0.09351263       0.95460810
C        1.60040997       1.16648737       0.18060810
C        2.39940997       0.52948737       1.12660810
C        0.49640997      -0.71751263       1.90760810
C        1.84040997      -0.40851263       1.99760810
H       -0.37559003       1.36548737      -0.61739190
H        2.02640997       1.90348737      -0.48539190
H       -1.98959003      -1.34051263       1.34960810
H       -2.05759003      -0.44551263      -0.16439190
H        3.45140997       0.77148737       1.19160810
H        0.06540997      -1.44351263       2.58260810
H        2.46340997      -0.89251263       2.73760810
H       -2.37455003       0.41272737       1.36247510
C       -1.11059003      -0.61751263      -3.02839190
C       -2.56759003      -0.17351263      -3.22839190
H       -0.82559003      -1.32051263      -3.80939190
H       -0.45659003       0.25348737      -3.08039190
H       -0.98459003      -1.09351263      -2.05739190
H       -2.76959003       0.63248737      -2.52339190
H       -3.22910003      -1.02269263      -3.00189690
H       -2.69910003       0.21316737      -4.24975690
