14
Properties=species:S:1:pos:R:3 pbc="F F F"
C       -0.61140158      -0.52221848       1.07287071
C       -1.63740158      -1.07921848       2.05187071
H       -0.38140158       0.50478152       1.33287071
H        0.30959842      -1.10221848       1.12287071
H       -1.02540158      -0.57521848       0.06787071
H       -1.29940158      -0.84521848       3.06187071
H       -2.64831158      -0.66964848       1.90932071
H       -1.68749158      -2.17472848       1.96620071
C        1.25859842       1.44678152      -1.44012929
O        0.80859842       0.11178152      -1.48012929
H        1.54159842      -0.45021848      -1.76812929
H        1.65059842       1.73378152      -2.41812929
H        2.06259842       1.52278152      -0.70612929
H        0.44247842       2.12453152      -1.14925929
