17
Properties=species:S:1:pos:R:3 pbc="F F F"
C        0.96043081       0.11344985      -1.94046424
C        0.76643081       0.11644985      -3.45346424
H        1.99043081       0.37144985      -1.69746424
H        0.30543081       0.85844985      -1.49046424
H        0.73943081      -0.87355015      -1.53546424
H        0.99543081       1.12844985      -3.77546424
H       -0.26591919      -0.13825815      -3.73520824
H        1.47924081      -0.57045415      -3.93311324
C       -0.68556919       0.77344985       2.54353576
C       -0.37556919      -0.10655015       1.33953576
O        0.69243081      -0.71055015       1.22653576
N       -1.32556919      -0.18555015       0.42753576
H       -0.71056919       0.13044985       3.42353576
H       -1.68656919       1.19144985       2.44953576
H       -1.20356919      -0.80955015      -0.36346424
H       -2.19556919       0.30444985       0.55453576
H        0.04930081       1.57738685       2.69734476
