27
Properties=species:S:1:pos:R:3 pbc="F F F"
C       -1.17733132       0.00207602      -3.27578561
C       -1.05333132       0.20507602       0.52421439
C       -0.96333132      -1.13992398       0.86721439
C       -1.12833132       0.56607602      -0.82178561
C       -1.09333132      -0.39792398      -1.82578561
C       -0.91533132      -2.11292398      -0.12378561
C       -0.97933132      -1.73792398      -1.47478561
O       -0.87433132      -1.53292398       2.15121439
H       -1.07733132       0.95107602       1.30321439
H       -1.20133132       1.61107602      -1.08878561
H       -0.85333132      -3.15192398       0.14321439
H       -0.78633132      -2.47992398       2.22721439
H       -0.95433132      -0.85892398      -3.90778561
H       -0.43233132       0.76807602      -3.46978561
H       -0.95633132      -2.49992398      -2.24378561
H       -2.17600532       0.38896292      -3.52671561
C        1.92166868       1.86807602       1.30621439
C        2.88166868       2.94807602       1.82921439
C        2.65866868       0.97807602       0.28121439
H        1.54766868       1.25307602       2.12321439
H        1.08166868       2.34707602       0.80221439
H        3.33466868       3.41907602       0.95421439
H        3.40666868       0.36107602       0.77721439
H        1.93766868       0.31607602      -0.19978561
H        3.13866868       1.58507602      -0.48578561
H        2.35457068       3.75184702       2.36411439
H        3.70569868       2.52308402       2.42111439
