16
Properties=species:S:1:pos:R:3 pbc="F F F"
C        0.64043375       0.45762773       1.71490039
C        1.38843375       1.24362773       2.82990039
H        0.95143375      -0.58737227       1.71390039
H       -0.43456625       0.50662773       1.88390039
H        0.85443375       0.90162773       0.74190039
H        1.29243375       0.69662773       3.76790039
H        0.87343375       2.19862773       2.93990039
H        2.45348375       1.42364673       2.62191039
C       -0.67256625      -1.03137227      -1.60909961
C       -1.35256625      -0.67537227      -2.93909961
H       -1.08856625      -1.95937227      -1.21409961
H        0.39743375      -1.16237227      -1.77209961
H       -0.81656625      -0.22337227      -0.89109961
H       -0.91656625       0.25762773      -3.29209961
H       -2.42868625      -0.53777987      -2.75732961
H       -1.18220625      -1.44911027      -3.70218961
