16
Properties=species:S:1:pos:R:3 pbc="F F F"
C        1.80931396       3.00455870      -0.81365938
C        0.61731396       2.12255870      -0.45765938
O       -0.11368604       1.63455870      -1.34465938
O        0.38831396       1.87355870       0.74834062
H        1.69331396       3.97155870      -0.32065938
H        1.83631396       3.17855870      -1.89165938
H        2.75596396       2.54785870      -0.48919738
C        0.74831396      -2.08844130       0.74234062
C       -0.72868604      -2.12944130       0.41234062
O       -1.22568604      -1.30644130      -0.36065938
N       -1.45268604      -3.05844130       1.02334062
H        0.83931396      -2.21344130       1.82234062
H        1.13031396      -1.10044130       0.50534062
H       -2.44468604      -3.10044130       0.83634062
H       -1.02068604      -3.70544130       1.66834062
H        1.34286396      -2.85782130       0.22797762
