16
Properties=species:S:1:pos:R:3 pbc="F F F"
C       -0.10307478      -2.33557385      -1.70461719
C        0.40692522      -0.94757385      -1.32661719
O       -0.47707478      -0.09357385      -1.05061719
O        1.63492522      -0.69757385      -1.32161719
H       -0.88607478      -2.25157385      -2.46161719
H       -0.56207478      -2.77557385      -0.81661719
H        0.67392522      -3.02953385      -2.05773719
C       -0.13007478       0.99242615       2.04838281
C       -1.56307478       1.33442615       2.40038281
O        0.25992522       1.61142615       0.86438281
H        0.54592522       1.29542615       2.84538281
H       -0.03607478      -0.08757385       1.92338281
H       -1.82507478       0.82742615       3.32838281
H        0.05492522       0.98542615       0.12838281
H       -2.25049478       0.99033615       1.61358281
H       -1.66351478       2.42106615       2.53867281
