24
Properties=species:S:1:pos:R:3 pbc="F F F"
C       -0.51392574      -2.69925361       0.01401512
C        0.23707426      -0.75625361       1.34501512
N        0.44707426      -1.66425361       0.40701512
N       -0.90492574      -0.73525361       2.00801512
N        1.16107426       0.14574639       1.60601512
H        1.39007426      -1.70825361       0.01401512
H       -1.59492574      -1.44725361       1.84701512
H       -1.06392574      -0.04425361       2.72501512
H        2.01407426       0.15174639       1.04001512
H        1.02707426       0.83774639       2.32401512
H       -1.53992574      -2.41225361       0.24601512
H       -0.28092574      -3.61525361       0.56301512
H       -0.45540574      -2.91022761      -1.06397488
C       -0.65792574       1.73374639      -1.46798488
C        0.10207426       3.05574639      -1.47298488
C        0.10907426       0.92674639      -2.50098488
H       -1.68892574       1.88974639      -1.78698488
H       -0.63492574       1.26474639      -0.48498488
H       -0.55692574       3.87074639      -1.17198488
H        0.96707426       2.98774639      -0.80998488
H       -0.44492574       0.04674639      -2.82698488
H        1.03607426       0.64574639      -2.01998488
H        0.43414426       3.15372339      -2.51707488
H        0.24295426       1.66853939      -3.30212488
