32
Properties=species:S:1:pos:R:3 pbc="F F F"
C        0.60266703      -2.15383269      -1.21161511
C        0.97966703      -3.58783269      -0.87061511
C        1.58766703      -1.64783269      -2.25461511
C       -0.82933297      -2.05683269      -1.72061511
H        0.68566703      -1.55983269      -0.31061511
H        1.96766703      -3.58583269      -0.40561511
H        1.04666703      -4.15283269      -1.80161511
H        1.51166703      -2.24383269      -3.16061511
H        1.35166703      -0.62283269      -2.51361511
H        2.60566703      -1.69183269      -1.86661511
H       -1.53233297      -2.27783269      -0.91861511
H       -1.02433297      -1.03983269      -2.06061511
H       -0.98433297      -2.74683269      -2.55061511
H        0.27735903      -4.12740269      -0.21821311
C        1.59966703       0.79616731       0.33038489
C        2.51366703       2.00416731       0.50538489
C        0.15166703       1.05116731       0.68938489
C       -0.59033297       2.02816731       0.01838489
C       -0.47633297       0.27516731       1.65538489
C       -1.93433297       2.23916731       0.32938489
C       -1.82433297       0.46416731       1.95938489
C       -2.55833297       1.43616731       1.28438489
H        1.63466703       0.53116731      -0.71961511
H        1.98966703      -0.03783269       0.91638489
H        2.16266703       2.81116731      -0.13861511
H       -0.12733297       2.61916731      -0.75761511
H        0.08166703      -0.48683269       2.18038489
H       -2.49433297       2.99916731      -0.19561511
H       -2.30333297      -0.15083269       2.70738489
H       -3.60433297       1.57616731       1.51638489
H        3.54402403       1.73066731       0.23415889
H        2.48162103       2.35230731       1.54834789
