20
Properties=species:S:1:pos:R:3 pbc="F F F"
C       -3.15168551       0.85650704       0.38292591
C       -3.31068551       0.71650704       1.89192591
H       -3.00468551      -0.12349296      -0.07507409
H       -4.04768551       1.31450704      -0.04007409
H       -2.29868551       1.49950704       0.16192591
H       -3.39368551       1.71550704       2.31592591
H       -2.42886551       0.20911904       2.31019591
H       -4.22751551       0.15467404       2.12381591
C        0.26331449      -0.34049296      -0.69407409
C        0.36931449      -0.70549296      -2.17607409
C        1.59331449      -0.18349296       0.01592591
O        1.74631449       0.68550704       0.88392591
N        2.56631449      -1.02249296      -0.33107409
H       -0.28268551       0.59950704      -0.60907409
H       -0.29568551      -1.11149296      -0.16307409
H        0.95131449      -1.61749296      -2.31307409
H        0.87731449       0.10750704      -2.69807409
H        3.46831449      -0.92149296       0.11092591
H        2.40831449      -1.73849296      -1.02607409
H       -0.62449551      -0.85330896      -2.62382409
