29
Properties=species:S:1:pos:R:3 pbc="F F F"
C        1.12999796      -1.59394438      -2.25780414
C        0.24799796      -1.44194438       0.13519586
C       -0.01000204      -1.50094438      -1.25080414
C       -0.80800204      -1.36994438       1.07119586
C       -1.33800204      -1.48994438      -1.69880414
C       -2.13200204      -1.37294438       0.60319586
C       -2.39500204      -1.43094438      -0.78180414
H        1.27499796      -1.45094438       0.47919586
H       -0.59500204      -1.31394438       2.13419586
H        0.85699796      -2.35494438      -2.98680414
H        2.00999796      -1.93094438      -1.71480414
H       -1.54600204      -1.52594438      -2.76080414
H       -2.95500204      -1.32994438       1.30619586
H       -3.41600204      -1.42794438      -1.14180414
H        1.37465196      -0.65598438      -2.77778414
C        1.10099796       2.05505562       0.69019586
C        1.95699796       3.25105562       0.16919586
C        1.81399796       1.41805562       1.90119586
C       -0.28600204       2.50405562       1.17319586
H        0.98899796       1.30805562      -0.09680414
H        2.05599796       3.97705562       0.97819586
H        1.92299796       2.15905562       2.69519586
H        1.23199796       0.57405562       2.27519586
H        2.80099796       1.06405562       1.60319586
H       -0.82100204       2.98405562       0.35619586
H       -0.85500204       1.63905562       1.51819586
H       -0.17800204       3.20805562       1.99319586
H        1.50924796       3.78075562      -0.68458414
H        2.90676796       2.88305562      -0.24615414
