30
Properties=species:S:1:pos:R:3 pbc="F F F"
C        3.92876311       0.63891387       1.24791370
C        0.98176311      -1.13608613      -0.09508630
C        1.52776311       0.02991387       0.52691370
C        2.92376311      -0.25008613       0.65591370
C        3.12776311      -1.46808613       0.10791370
C       -0.92723689      -0.30508613      -0.32808630
C       -0.30923689      -1.43008613      -0.45208630
C       -0.54923689       0.95191387       0.35091370
C        0.67376311       1.08391387       0.84091370
N        1.99476311      -1.99808613      -0.31208630
H       -1.34223689      -0.29408613      -1.30608630
H       -0.62123689      -2.27908613      -1.02708630
H       -1.06623689       1.84391387       0.12691370
H        1.03776311       2.01491387       1.25091370
H        1.92676311      -2.86908613      -0.82008630
H        4.07176311      -1.80108613      -0.24208630
H        4.34176311       0.17291387       2.14391370
H        3.42076311       1.55591387       1.54891370
H        4.73152311       0.87540887       0.53402370
C       -4.56823689       0.76091387      -0.76108630
C       -4.59523689       2.26391387      -0.93308630
C       -3.18523689       0.44091387      -0.47908630
H       -5.22723689       0.44591387       0.04991370
H       -4.88823689       0.26191387      -1.66708630
H       -3.91823689       2.52191387      -1.74708630
H       -3.20823689      -0.61308613      -0.75608630
H       -2.62123689       1.10791387      -1.13708630
H       -4.27570689       2.87832687      -0.07845630
H       -5.59235989       2.60384187      -1.24962630
H       -2.92002689       0.50033187       0.58681370
