27
Properties=species:S:1:pos:R:3 pbc="F F F"
C       -2.20824513       0.52054588      -0.20484087
C       -2.98424513       1.66754588       0.48715913
C       -0.70124513       0.58254588      -0.00384087
C        0.08675487       1.36554588      -0.84584087
C       -0.10124513      -0.01345412       1.11015913
C        1.44175487       1.53554588      -0.60684087
C        1.25475487       0.17954588       1.38115913
C        2.02975487       0.93254588       0.50015913
O        3.34875487       1.14754588       0.77015913
H       -2.56024513      -0.42245412       0.21515913
H       -2.43924513       0.49954588      -1.26784087
H       -4.01224513       1.33854588       0.64315913
H       -0.36024513       1.86454588      -1.69284087
H       -0.70024513      -0.61045412       1.77615913
H        2.02975487       2.14554588      -1.27684087
H        1.71175487      -0.26045412       2.25415913
H        3.77375487       1.64554588       0.06915913
H       -3.00442613       2.58914588      -0.11304087
H       -2.54431213       1.87672588       1.47341513
C       -1.06724513      -2.94845412      -0.96184087
C       -1.00924513      -4.39545412      -1.45284087
H       -2.09724513      -2.59545412      -0.93484087
H       -0.65824513      -2.89045412       0.04715913
H       -0.47724513      -2.30345412      -1.61384087
H       -1.60824513      -5.00345412      -0.78284087
H       -1.40281913      -4.48307412      -2.47627687
H        0.02462787      -4.77009412      -1.42546287
