21
Properties=species:S:1:pos:R:3 pbc="F F F"
C       -0.11644384      -1.48941577       0.31584197
C       -0.94744384      -2.70641577      -0.10615803
C       -0.76744384      -0.16341577       0.02784197
C       -0.58644384       0.69658423      -1.01015803
C       -2.09844384       1.56258423       0.32784197
N       -1.71544384       0.40358423       0.84984197
N       -1.43144384       1.76758423      -0.80315803
H        0.09455616      -1.54541577       1.38384197
H        0.82355616      -1.54241577      -0.22615803
H       -1.13044384      -2.64541577      -1.17815803
H        0.09355616       0.55658423      -1.84015803
H       -2.82744384       2.22858423       0.76684197
H       -1.56444384       2.55858423      -1.42915803
H       -1.89831284      -2.71856777       0.44674397
H       -0.42660584      -3.64898677       0.11809097
C        3.91855616       0.05358423       0.56884197
O        2.70855616       0.03458423      -0.18115803
H        2.00755616       0.22958423       0.45784197
H        4.00755616       1.00558423       1.09484197
H        3.92855896      -0.77093177       1.29690297
H        4.75182816      -0.04094077      -0.14300203
