30
Properties=species:S:1:pos:R:3 pbc="F F F"
C       -1.03010778       0.75497715       0.04226156
C       -1.93010778       1.90097715       0.50226156
C        0.16689222       1.24497715      -0.72173844
C        1.14789222       1.96597715      -0.04373844
C        0.32689222       0.94897715      -2.07273844
C        2.24889222       2.47897715      -0.72573844
C        1.43689222       1.46297715      -2.75673844
C        2.40989222       2.22697715      -2.08473844
H       -0.67610778       0.26697715       0.94526156
H       -1.59610778       0.03997715      -0.55673844
H       -1.40510778       2.52497715       1.22026156
H        1.02689222       2.16597715       1.01126156
H       -0.39510778       0.33997715      -2.59773844
H        2.99589222       3.05997715      -0.20373844
H        1.57289222       1.24497715      -3.80773844
H        3.27289222       2.60097715      -2.61873844
H       -2.82545778       1.47581715       0.97932156
H       -2.28469778       2.49219715      -0.35489844
C       -1.13910778      -2.64002285       1.86226156
C       -2.14410778      -3.14202285       0.80026156
C       -0.62810778      -3.73902285       2.83826156
O       -0.02110778      -2.03002285       1.19426156
H       -1.62010778      -1.86202285       2.45426156
H       -2.32410778      -2.31302285       0.11726156
H       -0.26410778      -4.61202285       2.29926156
H        0.18489222      -3.30702285       3.41526156
H       -1.43610778      -4.03402285       3.50926156
H        0.63289222      -1.72302285       1.84926156
H       -3.07972778      -3.42967285       1.30213156
H       -1.76134778      -3.98335285       0.20389156
