30
Properties=species:S:1:pos:R:3 pbc="F F F"
C        0.55644336       2.62889999      -2.04806184
C        0.36644336       3.78489999      -1.09906184
C        1.92644336       2.10189999      -1.65206184
H        0.53844336       2.96989999      -3.08406184
H       -0.18055664       1.87789999      -1.85306184
H       -0.42455664       4.45589999      -1.43306184
H        0.16344336       3.41789999      -0.09006184
H        1.81444336       1.44989999      -0.78706184
H        1.35335336       4.26929199      -1.13604184
H        2.46699336       3.01210399      -1.35318184
H        2.39384336       1.52503499      -2.46370184
C       -0.72055664       0.61589999       3.01793816
C       -1.51955664       0.83189999       0.59793816
C       -0.82655664       0.20189999       1.58693816
C       -0.58355664      -0.94910001      -0.39206184
C       -0.21255664      -0.94510001       0.97993816
C       -0.15555664      -1.93010001      -1.27906184
C        0.61544336      -1.97110001       1.45493816
C        0.66244336      -2.93310001      -0.78306184
C        1.04144336      -2.96010001       0.56793816
N       -1.37955664       0.14689999      -0.58706184
H       -2.08255664       1.74889999       0.72793816
H       -1.69355664       0.48789999      -1.50006184
H       -0.69855664      -0.27210001       3.64093816
H       -1.61755664       1.18389999       3.25893816
H       -0.42855664      -1.88710001      -2.32306184
H        0.94444336      -1.97010001       2.47993816
H        1.07844336      -3.66710001      -1.44906184
H        1.68544336      -3.74210001       0.93093816
H        0.15029336       1.24852799       3.24464816
