20
Properties=species:S:1:pos:R:3 pbc="F F F"
C        0.53090324       0.59329410      -0.96442228
C        1.01490324       1.00029410      -2.37742228
C        1.60090324       0.92829410       0.09857772
O       -0.69509676       1.30529410      -0.68142228
H        0.33190324      -0.47870590      -0.94242228
H        1.10990324       2.08729410      -2.40142228
H        1.91590324       1.96629410      -0.02642228
H        1.17490324       0.78929410       1.09357772
H        2.45890324       0.26129410      -0.00242228
H       -1.12109676       0.89529410       0.08257772
H        0.30252524       0.64485410      -3.13649228
H        1.98959224       0.53429410      -2.58437228
C       -1.50709676      -1.26870590       1.73357772
C       -0.81809676      -2.58370590       2.11757772
H       -2.05509676      -0.87270590       2.58957772
H       -0.75009676      -0.53770590       1.46557772
H       -2.19609676      -1.42370590       0.90057772
H       -0.11509676      -2.41570590       2.92257772
H       -1.52902176      -3.38002590       2.38301772
H       -0.27345576      -2.93356590       1.22821772
