28
Properties=species:S:1:pos:R:3 pbc="F F F"
C        2.92483724      -2.79312944      -2.50666174
C       -0.17616276      -1.53512944      -0.79266174
C        0.84483724      -1.36112944      -1.76266174
C        1.71383724      -2.48812944      -1.66466174
C        1.21283724      -3.26312944      -0.68566174
C       -1.17716276      -0.60312944      -0.59366174
C       -1.16416276       0.52687056      -1.42666174
C       -0.15016276       0.71887056      -2.36566174
C        0.83083724      -0.23012944      -2.57766174
N        0.09583724      -2.70812944      -0.16066174
H       -1.94216276      -0.75312944       0.15433826
H       -1.94016276       1.27387056      -1.32066174
H       -0.38416276      -3.10612944       0.65233826
H       -0.17816276       1.59187056      -2.99066174
H        1.65183724      -4.19712944      -0.35366174
H        1.57783724      -0.09012944      -3.34466174
H        2.69083724      -2.50412944      -3.52566174
H        3.07583724      -3.87212944      -2.50966174
H        3.87091724      -2.33338044      -2.18483774
C       -1.18716276       2.32187056       1.70833826
C        0.00783724       3.22587056       4.06033826
S       -1.61316276       3.17087056       3.24733826
H       -0.62216276       1.41587056       1.92833826
H       -2.10016276       2.04387056       1.18433826
H       -0.60016276       2.97587056       1.06433826
H        0.37183724       2.20087056       4.14333826
H       -0.11916276       3.61287056       5.07233826
H        0.77081724       3.82442536       3.54110826
