30
Properties=species:S:1:pos:R:3 pbc="F F F"
C       -2.77170809       0.59421676      -0.59602071
C       -2.27770809       1.32321676       0.64997929
C       -4.12470809       0.09121676      -0.23802071
H       -2.11470809      -0.24578324      -0.82202071
H       -2.82870809       1.27021676      -1.44702071
H       -1.20370809       1.19821676       0.77697929
H       -2.53670809       2.37421676       0.56297929
H       -4.47570809      -0.71478324      -0.86002071
H       -4.82670809       0.90821676      -0.33102071
H       -2.84544809       0.86230676       1.47170929
H       -4.02078809      -0.18878324       0.82065929
C        0.32029191      -1.33978324      -2.63702071
C        0.77629191      -0.55578324      -0.18602071
C        0.94229191      -0.46978324      -1.60202071
C        1.54829191       0.48121676       0.38697929
C        1.80729191       0.54121676      -1.82302071
C        0.03829191      -1.38878324       0.66997929
C        1.61729191       0.68221676       1.75497929
C        0.11429191      -1.17478324       2.05097929
C        0.88729191      -0.14578324       2.56997929
N        2.19829191       1.10221676      -0.63702071
H       -0.58470809      -2.17378324       0.26497929
H        0.09329191      -0.74378324      -3.52002071
H       -0.62970809      -1.71578324      -2.25302071
H        2.16029191       0.84821676      -2.80302071
H        2.93129191       1.80521676      -0.52902071
H        2.24529191       1.45921676       2.16597929
H       -0.43670809      -1.81578324       2.72597929
H        0.96129191      -0.02478324       3.64197929
H        0.94036191      -2.19679324      -2.93877371
