32
Properties=species:S:1:pos:R:3 pbc="F F F"
C        0.43910211       1.26238089      -1.34687355
C        0.17510211       2.63138089      -1.96987355
C       -0.78289789       0.42638089      -1.11187355
C       -1.07289789      -0.64461911      -1.95487355
C       -1.62189789       0.68638089      -0.02687355
C       -2.18689789      -1.45461911      -1.72087355
C       -2.73789789      -0.12161911       0.21512645
C       -3.02089789      -1.19361911      -0.63287355
H        1.16810211       0.71038089      -1.93687355
H        0.86910211       1.46538089      -0.37887355
H       -0.43689789       3.20838089      -1.27787355
H       -0.41089789      -0.87161911      -2.77187355
H       -1.40889789       1.51138089       0.63412645
H       -2.39589789      -2.29061911      -2.37487355
H       -3.38589789       0.08738089       1.05612645
H       -3.88589789      -1.81561911      -0.44887355
H       -0.32489789       2.55208089      -2.94645355
H        1.14937211       3.13123089      -2.07449355
C        2.26010211      -0.22161911       1.72812645
C        2.68410211       0.57638089       2.97012645
C        3.45610211      -0.96461911       1.14112645
C        1.14610211      -1.20861911       2.07512645
H        1.91110211       0.47238089       0.98712645
H        3.35910211       1.35838089       2.63312645
H        3.77710211      -1.77061911       1.79612645
H        3.16910211      -1.40361911       0.18712645
H        4.27910211      -0.27061911       0.97412645
H        0.23610211      -0.69161911       2.37912645
H        0.90210211      -1.79261911       1.18612645
H        1.46610211      -1.89461911       2.85712645
H        3.20669211      -0.07647911       3.68473645
H        1.80301211       1.07913089       3.39547645
