21
Properties=species:S:1:pos:R:3 pbc="F F F"
C       -0.50619718       1.58380562      -1.46022973
C       -0.63919718       0.77080562       0.86877027
N       -0.00419718       1.41780562      -0.09322973
N       -1.81619718       0.22080562       0.63277027
N       -0.09219718       0.66180562       2.06277027
H        0.92280282       1.78480562       0.12377027
H       -2.18219718       0.21980562      -0.30622973
H       -2.30519718      -0.27519438       1.35977027
H        0.85880282       0.98780562       2.18377027
H       -0.55619718       0.16580562       2.80477027
H       -1.44819718       2.13280562      -1.44722973
H       -0.68219718       0.60180562      -1.89722973
H        0.21668282       2.11295762      -2.09853973
C        1.82580282      -1.57419438      -0.94922973
C        1.21880282      -2.96919438      -1.04922973
H        2.64980282      -1.45519438      -1.65122973
H        1.06980282      -0.83819438      -1.20122973
H        2.18480282      -1.39119438       0.06277027
H        0.88180282      -3.15419438      -2.06322973
H        1.97776282      -3.72599238      -0.80175973
H        0.35839282      -3.05127538      -0.36881973
