24
Properties=species:S:1:pos:R:3 pbc="F F F"
C        0.36089783      -3.58214899      -0.57380689
C       -1.06810217       0.42285101       0.05119311
C       -0.87510217      -0.43814899       1.13319311
C       -0.82410217      -0.03914899      -1.24280689
C       -0.42010217      -1.72714899       0.92919311
C       -0.34210217      -1.32614899      -1.42980689
C       -0.13910217      -2.18514899      -0.35180689
O       -1.55510217       1.68285101       0.28419311
H       -1.06610217      -0.10014899       2.14019311
H       -1.64210217       1.86585101       1.21919311
H       -0.97110217       0.62585101      -2.08080689
H       -0.26310217      -2.37914899       1.77719311
H       -0.12410217      -1.66614899      -2.43480689
H        1.24489783      -3.72814899       0.04819311
H        0.66489783      -3.70314899      -1.61480689
H       -0.38298217      -4.35053899      -0.31647589
C        1.48489783       3.25685101       0.52219311
C        2.98589783       2.94385101       0.44119311
H        1.06489783       3.34985101      -0.47780689
H        0.95589783       2.47985101       1.06519311
H        1.30789783       4.16785101       1.08519311
H        3.36489783       2.85485101       1.45919311
H        3.52197783       3.74796101      -0.08418889
H        3.14785783       1.99154101      -0.08499089
