34
Properties=species:S:1:pos:R:3 pbc="F F F"
C       -0.66954879       6.01036108      -0.35545091
C       -0.44454879       1.89636108      -1.58045091
C       -1.19654879       2.80136108      -2.32045091
C        0.23145121       2.32336108      -0.44545091
C       -1.27254879       4.13436108      -1.92045091
C        0.15445121       3.65636108      -0.05045091
C       -0.60054879       4.56936108      -0.78045091
H       -0.38654879       0.86036108      -1.87945091
H       -1.72154879       2.47736108      -3.20645091
H        0.82045121       1.62036108       0.12754909
H       -1.86054879       4.82436108      -2.50145091
H        0.67645121       3.97536108       0.83854909
H       -0.02354879       6.14836108       0.51354909
H       -1.69154879       6.23736108      -0.05045091
H       -0.36382879       6.71388108      -1.14385891
C        3.16645121      -3.17063892       1.61054909
C       -0.33954879      -2.98963892       0.26154909
C        0.74045121      -2.39563892       0.96854909
C        1.80545121      -3.35963892       1.00954909
C        1.34845121      -4.45263892       0.33254909
C       -1.67254879      -1.04663892       0.54554909
C       -1.54154879      -2.33163892       0.04754909
C       -0.62554879      -0.43163892       1.25054909
C        0.58345121      -1.09463892       1.46554909
N        0.06645121      -4.24163892      -0.10945091
H       -2.59954879      -0.50863892       0.39654909
H       -2.34054879      -2.80863892      -0.49545091
H       -0.76254879       0.57036108       1.63354909
H        1.39445121      -0.61663892       1.98654909
H       -0.51354879      -4.93363892      -0.59745091
H        1.92245121      -5.34863892       0.14054909
H        3.41745121      -4.02363892       2.24254909
H        3.15345121      -2.27563892       2.23454909
H        3.92097121      -3.04919892       0.81937949
