18
Properties=species:S:1:pos:R:3 pbc="F F F"
C       -2.64790728      -0.42353627      -1.46156549
C       -1.20090728      -0.72853627      -1.14156549
O       -0.30990728       0.07946373      -1.38856549
N       -0.95890728      -1.90153627      -0.57956549
H       -2.94890728       0.41846373      -0.84556549
H       -3.27490728      -1.27353627      -1.19456549
H       -0.02690728      -2.09353627      -0.22956549
H       -1.70890728      -2.54653627      -0.39056549
H       -2.80172328      -0.16190627      -2.51886879
C        1.27009272       0.54146373       1.49843451
C        2.41609272       0.58246373       0.48743451
O        1.20609272       1.72846373       2.27043451
H        0.32209272       0.43146373       0.97543451
H        1.39309272      -0.31653627       2.15843451
H        2.19809272      -0.16053627      -0.28156549
H        2.05309272       1.84346373       2.74543451
H        3.37013572       0.35037373       0.98335551
H        2.46322072       1.57215373       0.00962951
