25
Properties=species:S:1:pos:R:3 pbc="F F F"
C        0.97052871       2.10635874      -3.70136177
C        0.86552871      -0.07264126      -0.59736177
C        0.66552871       0.38435874      -1.90036177
C        1.53052871       0.72835874       0.33063823
C        1.13252871       1.63835874      -2.28736177
C        1.99752871       1.98235874      -0.05236177
C        1.79552871       2.43635874      -1.35736177
H        0.53252871      -1.06164126      -0.33536177
H        0.15152871      -0.24064126      -2.61436177
H        1.71852871       0.36135874       1.32963823
H        2.57852871       2.56235874       0.63563823
H        1.16252871       1.26535874      -4.36836177
H        1.72952871       2.86335874      -3.90936177
H        2.19052871       3.39535874      -1.66036177
H       -0.02084129       2.52199874      -3.93467177
C       -2.15447129      -0.89864126       1.22963823
C       -3.44847129      -1.03064126       2.02163823
C       -1.09547129      -1.87464126       1.73363823
O       -1.39847129      -3.08164126       1.84863823
O        0.04252871      -1.44264126       2.00863823
H       -2.35947129      -1.09664126       0.17463823
H       -1.79947129       0.13235874       1.31563823
H       -3.20547129      -0.88264126       3.07263823
H       -3.84147129      -2.03464126       1.91163823
H       -4.23635129      -0.31615126       1.74101823
