29
Properties=species:S:1:pos:R:3 pbc="F F F"
C       -1.72064545       1.16419838       2.39355091
C       -1.01264545       1.37119838       3.70755091
C       -2.87864545       0.24719838       2.77655091
H       -1.04064545       0.65619838       1.71055091
H       -2.06864545       2.10619838       1.96755091
H        0.02835455       1.64919838       3.55155091
H       -1.52664545       2.15019838       4.27455091
H       -3.73664545       0.86119838       3.05555091
H       -1.09090145       0.41707238       4.24932091
H       -2.50844445      -0.27637162       3.67032091
H       -3.17804345      -0.43796362       1.96976091
C       -0.53864545       0.25119838      -1.06544909
C       -1.35864545       0.33419838      -2.32144909
C        0.59335455      -0.97180162      -2.83044909
C        2.94135455      -1.31880162      -1.14044909
C        1.72235455      -0.55680162      -0.64444909
O        1.72135455      -0.05380162       0.47455091
N        0.67035455      -0.47680162      -1.45844909
H       -0.30764545       1.25019838      -0.69044909
H       -1.07864545      -0.32780162      -0.31744909
H       -1.11164545       1.24419838      -2.86444909
H       -2.42264545       0.31319838      -2.09344909
H        0.90335455      -2.00980162      -2.89044909
H        2.91835455      -1.39380162      -2.22244909
H       -1.03193445      -0.53775262      -2.90707709
H       -0.48267745      -0.90217162      -3.04795209
H        1.17419455      -0.33547162      -3.51434109
H        3.86643455      -0.80265862      -0.84408909
H        2.89400455      -2.34751412      -0.75378909
