30
Properties=species:S:1:pos:R:3 pbc="F F F"
C        5.03114823      -1.65111192       0.51025683
C        0.79914823      -1.34811192       1.27925683
C        1.25814823      -1.62811192      -0.00774317
C        1.71214823      -1.16411192       2.31625683
C        2.63114823      -1.72011192      -0.25574317
C        3.08114823      -1.26111192       2.06425683
C        3.55314823      -1.53611192       0.77625683
H       -0.26285177      -1.27411192       1.47325683
H        0.55114823      -1.77611192      -0.81274317
H        1.34614823      -0.96911192       3.31225683
H        2.97614823      -1.93911192      -1.25474317
H        3.74714823      -1.15811192       2.90525683
H        5.24314823      -1.46211192      -0.53874317
H        5.31514823      -2.68611192       0.70925683
H        5.64856823      -0.99986192       1.14638683
C       -0.69985177       1.44188808      -0.90174317
C       -0.33985177       2.72888808      -1.64074317
C       -2.18185177       1.25088808      -0.76674317
C       -2.95885177       1.14188808       0.34125683
C       -4.26785177       1.03588808      -1.42374317
N       -3.02185177       1.18188808      -1.86174317
N       -4.25585177       1.00888808      -0.09774317
H       -0.29585177       0.58888808      -1.44774317
H       -0.25285177       1.44688808       0.09125683
H       -0.76285177       2.67088808      -2.64374317
H       -2.62685177       1.15788808       1.36725683
H       -5.14985177       0.93888808      -2.04474317
H       -5.07885177       0.86888808       0.49125683
H        0.75128823       2.84970808      -1.71021317
H       -0.79000177       3.58359808      -1.11460317
