23
Properties=species:S:1:pos:R:3 pbc="F F F"
C       -0.35334125       3.46414854      -1.09396543
C        0.07765875       3.54014854      -2.55596543
H       -1.29534125       2.92714854      -1.00196543
H        0.40465875       2.92114854      -0.53396543
H       -0.45434125       4.46214854      -0.67696543
H        0.16965875       2.52314854      -2.93596543
H       -0.64930225       4.08950354      -3.17219543
H        1.06020475       4.02816854      -2.63621543
C        1.81765875      -1.97385146      -0.87296543
C       -0.69434125       0.34014854       0.79403457
C       -1.29634125      -0.51485146       1.71003457
C        0.31265875      -0.13285146      -0.04296543
C        0.72965875      -1.45785146       0.03303457
C       -0.89134125      -1.83885146       1.78803457
C        0.11365875      -2.30785146       0.95103457
H       -1.00834125       1.37214854       0.73903457
H       -2.07834125      -0.17685146       2.36803457
H        0.77565875       0.53614854      -0.75396543
H       -1.36234125      -2.50485146       2.49603457
H        2.26565875      -1.15085146      -1.43196543
H        1.35565875      -2.64785146      -1.59496543
H        0.40065875      -3.34785146       1.01603457
H        2.60918475      -2.52569546      -0.34480543
