27
Properties=species:S:1:pos:R:3 pbc="F F F"
C       -0.26917557       0.90970527       1.23025123
C        0.63682443       1.90070527       0.51825123
C       -1.42017557       1.94770527      -0.62574877
C       -2.55317557      -0.95429473       1.60725123
C       -2.55217557       0.10570527       0.50825123
O       -3.52117557       0.21970527      -0.24474877
N       -1.46917557       0.88270527       0.38125123
H        0.21082443      -0.06629473       1.30225123
H       -0.52217557       1.28970527       2.22125123
H        1.20782443       1.39970527      -0.26374877
H        1.30482443       2.40670527       1.21225123
H       -2.34717557       2.49870527      -0.61474877
H       -1.68117557      -0.85329473       2.25225123
H       -0.07360557       2.61113527       0.07040123
H       -0.63688557       2.61816527      -0.24241877
H       -1.24497557       1.67804527      -1.67769477
H       -3.45465557      -0.79751573       2.21778123
H       -2.56610557      -1.96439073       1.17189123
C        3.65782443      -0.43529473      -0.06074877
C        2.64482443      -1.27429473      -0.80974877
O        1.48482443      -1.37729473      -0.41074877
N        3.06782443      -1.87729473      -1.90374877
H        3.46882443       0.60970527      -0.30274877
H        4.65682443      -0.67929473      -0.41474877
H        2.40082443      -2.40629473      -2.44674877
H        4.04782443      -1.79129473      -2.16774877
H        3.61039443      -0.57328673       1.02953123
