19
Properties=species:S:1:pos:R:3 pbc="F F F"
C        1.76410119      -2.25512639      -2.94115157
C       -0.59889881      -2.00612639      -0.19815157
C        0.76410119      -0.59812639      -1.19315157
C        0.89510119      -1.80812639      -1.80115157
N       -0.17189881      -0.74912639      -0.19915157
N        0.02510119      -2.67112639      -1.16715157
H       -0.51089881      -0.01012639       0.42184843
H       -1.34989881      -2.41312639       0.47084843
H        1.27310119       0.31287361      -1.44215157
H        1.19710119      -2.94712639      -3.55015157
H        2.62010119      -2.79912639      -2.54115157
H        2.10029119      -1.43719639      -3.59534657
C       -1.22089881       3.65087361       1.59184843
C       -0.58989881       2.25987361       1.76584843
O       -1.18289881       1.30087361       1.23284843
O        0.48110119       2.09287361       2.40084843
H       -2.24689881       3.60887361       1.96084843
H       -1.27589881       3.90487361       0.53184843
H       -0.70598881       4.45899361       2.13203843
