26
Properties=species:S:1:pos:R:3 pbc="F F F"
C        2.97929464       1.25620655      -0.98790191
C        3.34929464       2.73720655      -0.88590191
H        1.91629464       1.15120655      -1.20190191
H        3.54029464       0.79920655      -1.80290191
H        3.23129464       0.72720655      -0.07490191
H        4.39629464       2.81520655      -0.60190191
H        2.74905464       3.25200655      -0.12124191
H        3.23125464       3.23035655      -1.86205191
C        0.86129464      -1.62579345       0.34509809
C        1.45429464      -1.40779345       1.74209809
C       -0.44670536      -0.89679345       0.13509809
C       -1.59670536      -1.59179345      -0.21890191
C       -0.52470536       0.48220655       0.33409809
C       -2.80070536      -0.91679345      -0.39790191
C       -1.72570536       1.15720655       0.15809809
C       -2.86270536       0.45820655      -0.21190191
H        1.57529464      -1.27579345      -0.40090191
H        0.71529464      -2.69479345       0.18309809
H        1.60329464      -0.33679345       1.85909809
H       -1.56070536      -2.66379345      -0.36290191
H        0.35429464       1.04320655       0.61509809
H       -3.68970536      -1.46379345      -0.68390191
H       -1.76670536       2.23020655       0.29309809
H       -3.79870536       0.98220655      -0.35990191
H        2.41527464      -1.92813345       1.86766809
H        0.73379964      -1.72183345       2.51168809
