30
Properties=species:S:1:pos:R:3 pbc="F F F"
C        4.56409593      -0.23927797       0.36540715
C        0.79209593      -0.44027797       0.51740715
C        2.07509593      -0.04127797       0.18940715
C        0.58909593      -1.45627797       1.43140715
C        3.17109593      -0.65327797       0.77440715
C        1.67309593      -2.06827797       2.02440715
C        2.96009593      -1.68427797       1.68240715
H       -0.05690407       0.03172203       0.05540715
H        2.21509593       0.75272203      -0.53059285
H       -0.41390407      -1.77427797       1.67540715
H        1.51409593      -2.85927797       2.74340715
H        4.52309593       0.09372203      -0.67459285
H        5.22109593      -1.11027797       0.39340715
H        3.80109593      -2.17327797       2.14640715
H        4.99137593       0.56901203       0.97704715
C       -1.26790407       0.97672203      -3.19059285
C       -2.15690407       1.87272203       0.37340715
C       -3.08690407       0.89772203       0.68440715
C       -1.56690407       1.89872203      -0.88059285
C       -1.89690407       0.93972203      -1.82759285
C       -3.42790407      -0.05827797      -0.26059285
C       -2.83890407      -0.03127797      -1.51359285
H       -1.89090407       2.61472203       1.11240715
H       -3.56590407       0.91272203       1.65140715
H       -0.83390407       2.65172203      -1.11059285
H       -4.15790407      -0.81927797      -0.02059285
H       -1.18290407      -0.04027797      -3.57859285
H       -0.25290407       1.36772203      -3.10159285
H       -3.10690407      -0.78427797      -2.24159285
H       -1.82705407       1.60225203      -3.90197285
