33
Properties=species:S:1:pos:R:3 pbc="F F F"
C       -2.44425969      -1.75637606      -1.64650040
C       -3.46225969      -1.01837606      -2.51650040
C       -2.32425969      -1.21737606      -0.23550040
H       -2.61925969      -2.82237606      -1.64850040
H       -1.46325969      -1.61537606      -2.10150040
H       -3.51425969       0.02562394      -2.19350040
H       -1.34225969      -1.51037606       0.12049960
H       -2.35025969      -0.12737606      -0.24750040
H       -4.44820969      -1.50494906      -2.48260640
H       -3.14114969      -1.01765606      -3.56858740
H       -3.03418969      -1.60714206       0.50886960
C        1.17774031      -0.43937606      -1.99550040
C        2.55374031       0.01862394      -2.52450040
C        1.05674031      -0.47037606      -0.52250040
C        1.31574031      -1.53637606       0.27549960
C        0.64074031       0.58762394       0.32649960
C        0.65374031       0.08562394       1.66349960
C        0.25374031       1.91162394       0.10249960
C        0.30274031       0.86462394       2.75849960
C       -0.11525969       2.70562394       1.19749960
C       -0.08225969       2.18662394       2.51549960
N        1.06874031      -1.21437606       1.58349960
H        0.39174031       0.20162394      -2.39250040
H        0.99274031      -1.44637606      -2.37050040
H        2.58574031      -0.16337606      -3.60050040
H        1.65174031      -2.50637606      -0.07950040
H        1.22774031      -1.84137606       2.36549960
H        0.22174031       2.29162394      -0.89950040
H        0.33374031       0.46462394       3.76249960
H       -0.42425969       3.73162394       1.03949960
H       -0.36425969       2.82262394       3.34549960
H        3.38818031      -0.50074606      -2.03057240
H        2.69756031       1.09727394      -2.36380340
