23
Properties=species:S:1:pos:R:3 pbc="F F F"
C        0.79132916      -2.40212222      -0.13750762
C        0.01832916      -1.26912222       0.45349238
C       -1.36967084      -1.17212222       0.33849238
C        0.74332916      -0.29912222       1.15249238
C       -2.06067084      -0.08812222       0.93849238
C        0.10132916       0.77587778       1.74949238
C       -1.28467084       0.89787778       1.62049238
H        1.63232916      -2.61912222       0.52249238
H        1.18632916      -2.07612222      -1.10050762
H       -1.94467084      -1.91412222      -0.19350762
H        1.81132916      -0.38712222       1.25849238
H       -3.13667084      -0.00312222       0.88149238
H        0.66732916       1.51587778       2.29949238
H       -1.78267084       1.73387778       2.08749238
H        0.22246916      -3.33267222      -0.28061362
C        1.31532916       1.16287778      -2.06650762
C        1.21832916       2.15987778      -3.19150762
H        0.37932916       0.60987778      -1.97950762
H        2.12032916       0.45487778      -2.26150762
H        1.51132916       1.67187778      -1.12050762
H        1.04732916       1.62987778      -4.12550762
H        0.37581916       2.83188778      -2.97107262
H        2.19009916       2.67358778      -3.23360362
