16
Properties=species:S:1:pos:R:3 pbc="F F F"
C       -1.25331201       1.14194095       0.66081712
C       -2.43331201       1.44194095      -0.21218288
H       -0.90431201       0.15294095       0.41781712
H       -0.46631201       1.88694095       0.53881712
H       -1.58531201       1.13194095       1.69681712
H       -3.07831201       2.13194095       0.33081712
H       -3.01615201       0.54591095      -0.47185888
H       -2.13730201       1.92521095      -1.15495788
C        1.28868799      -0.96705905       0.15681712
C        2.41168799      -1.62705905      -0.60718288
H        1.61268799      -0.62705905       1.14081712
H        1.00568799      -0.08005905      -0.40818288
H        0.44068799      -1.64605905       0.26081712
H        3.24468799      -0.93305905      -0.71918288
H        2.71922799      -2.49960905      -0.01213488
H        2.00085799      -1.86706905      -1.59895288
