37
Properties=species:S:1:pos:R:3 pbc="F F F"
C       -0.26689624      -2.59722121      -1.04307703
C       -0.85389624      -0.41722121      -2.35907703
C       -1.06889624      -1.79322121      -2.01807703
C       -1.83689624      -0.05722121      -3.31507703
C       -2.13589624      -2.20522121      -2.75507703
C        0.07510376       0.54577879      -1.95807703
C       -0.01189624       1.82777879      -2.48807703
C       -0.99689624       2.15377879      -3.42807703
C       -1.91989624       1.21877879      -3.85307703
N       -2.60189624      -1.17122121      -3.53407703
H        0.86310376       0.27677879      -1.28007703
H        0.70010376       2.58377879      -2.18707703
H       -1.05289624       3.16277879      -3.80707703
H       -0.92189624      -3.31122121      -0.53907703
H        0.10910376      -1.91122121      -0.28307703
H       -2.55589624      -3.20622121      -2.72507703
H       -3.39489624      -1.24122121      -4.16307703
H       -2.68489624       1.47177879      -4.57307703
H        0.58631376      -3.12715121      -1.49164203
C        1.60210376       1.33177879       1.50992297
C        3.06110376       1.72977879       1.33992297
C        1.33510376       0.59977879       2.78792297
C        1.37410376      -0.78922121       2.82192297
C        1.07410376       1.30377879       3.95792297
C        1.13110376      -1.46922121       4.00992297
C        0.83410376       0.62777879       5.14692297
C        0.86310376      -0.75922121       5.17292297
H        0.96710376       2.21877879       1.45192297
H        1.32310376       0.67177879       0.69792297
H        3.65810376       0.84077879       1.50092297
H        1.58710376      -1.35022121       1.92192297
H        1.04210376       2.38277879       3.94392297
H        1.14910376      -2.55122121       4.02792297
H        0.62310376       1.18177879       6.04892297
H        0.67010376      -1.28822121       6.09692297
H        3.33089376       2.48156179       2.09625297
H        3.24195376       2.07986079       0.31292297
