23
Properties=species:S:1:pos:R:3 pbc="F F F"
C       -0.03843079       0.12305909       1.59153282
C       -0.16843079      -0.39194091       3.00953282
C        0.66556921      -0.87694091       0.69053282
O        0.16656921      -1.97594091       0.45753282
N        1.82956921      -0.50694091       0.17253282
H       -1.06743079       0.20105909       1.26453282
H        0.45156921       1.09805909       1.57453282
H        0.83556921      -0.56094091       3.39953282
H       -0.68443079      -1.35394091       2.99753282
H        2.31956921      -1.16694091      -0.41646718
H        2.21956921       0.39105909       0.39853282
H       -0.70042079       0.28813909       3.69105482
C       -1.17943079       0.95905909      -1.46746718
C        0.09856921       0.47005909      -2.08146718
C       -1.46843079       2.20105909      -2.26446718
H       -1.16343079       1.17705909      -0.42146718
H       -1.86943079       0.24405909      -1.79946718
H        0.92456921       1.08005909      -1.75846718
H        0.26556921      -0.58694091      -1.89046718
H       -2.53143079       2.38605909      -2.16946718
H       -0.08147079       0.60581909      -3.15810718
H       -1.14071079       1.91993909      -3.27618518
H       -0.93411079       3.08124009      -1.87744718
