14
Properties=species:S:1:pos:R:3 pbc="F F F"
C       -0.40774801       1.62361765      -0.72319430
C        1.08925199       1.63461765      -1.05219430
H       -0.92974801       0.88461765      -1.32719430
H       -0.54674801       1.38361765       0.32980570
H       -0.84474801       2.60761765      -0.89419430
H        1.49325199       0.62561765      -0.97319430
H        1.20217199       2.02333065      -2.07501430
H        1.64086199       2.27004165      -0.34370430
C       -0.58274801      -1.96438235       1.34080570
O       -0.06574801      -1.07638235       0.38780570
H        0.02425199      -1.55038235      -0.45119430
H        0.10225199      -2.80238235       1.48380570
H       -1.54174801      -2.34538235       0.98380570
H       -0.73298801      -1.42946035       2.29016570
