20
Properties=species:S:1:pos:R:3 pbc="F F F"
C       -1.82825452       2.29046167      -0.77266452
C       -2.64425452       1.86746167      -1.98366452
H       -2.34825452       2.02046167       0.14533548
H       -0.85725452       1.80046167      -0.79566452
H       -1.67125452       3.36746167      -0.79666452
H       -2.06125452       2.13146167      -2.86466452
H       -3.61076452       2.39269167      -1.98294452
H       -2.81092452       0.78016167      -1.98294452
C        1.68074548       0.04046167       2.37733548
C        1.22574548       0.02146167      -0.17766452
C        1.10074548      -0.46053833       1.08633548
C       -0.00325452      -1.80253833      -0.26166452
N        0.52874548      -0.83453833      -1.00166452
N        0.32874548      -1.60153833       1.01033548
H        1.78874548       0.89746167      -0.47466452
H        0.45174548      -0.76453833      -2.00966452
H        0.91274548      -0.00653833       3.14933548
H        1.92174548       1.07646167       2.21833548
H       -0.60225452      -2.62553833      -0.63766452
H        2.55424548      -0.53492833       2.71782548
