20
Properties=species:S:1:pos:R:3 pbc="F F F"
C       -2.12750369      -0.55542237      -3.02663835
C       -1.38350369      -0.42342237      -1.70863835
O       -1.10750369       0.74057763      -1.34163835
O       -1.10350369      -1.46542237      -1.03963835
H       -1.83350369       0.27057763      -3.66963835
H       -3.19850369      -0.45242237      -2.83363835
H       -1.96874769      -1.51083237      -3.54815835
C        1.24149631       2.28657763       1.02936165
C        1.11349631      -0.12542237       1.50536165
N        0.77049631       0.92957763       0.79436165
N        1.99449631      -0.06042237       2.49336165
N        0.58149631      -1.30942237       1.22436165
H        0.08449631       0.79057763       0.04836165
H        1.37549631       2.46757763       2.09836165
H        0.45049631       2.96257763       0.69836165
H        2.38349631       0.83257763       2.77936165
H        2.19349631      -0.87742237       3.04736165
H       -0.07150369      -1.37942237       0.43536165
H        0.78949631      -2.12642237       1.77236165
H        2.16088631       2.55723763       0.48948165
