24
Properties=species:S:1:pos:R:3 pbc="F F F"
C        2.94453566       0.41448157       1.41403073
C        4.09653566       1.10148157       2.12403073
H        3.24053566      -0.58151843       1.09303073
H        2.09853566       0.32448157       2.09603073
H        2.63153566       0.99348157       0.54603073
H        3.73853566       2.04648157       2.52803073
H        4.90626566       1.28070257       1.40138873
H        4.45117566       0.47410457       2.95507373
C       -1.37146434      -1.26951843       2.21903073
C       -0.02146434      -1.01551843       0.10003073
C       -1.16846434      -0.71351843       0.83103073
C        0.16153566      -0.49751843      -1.17996927
C       -0.82046434       0.28648157      -1.76696927
C       -2.13846434       0.09248157       0.24603073
C       -1.97946434       0.57548157      -1.05296927
O       -0.60846434       0.75148157      -3.03396927
H        0.75053566      -1.62851843       0.54503073
H        1.07653566      -0.71751843      -1.70996927
H       -2.26746434      -0.83251843       2.66303073
H       -0.51846434      -0.95351843       2.82103073
H       -3.03846434       0.33648157       0.79603073
H        0.31853566       0.72348157      -3.28596927
H       -2.73746434       1.19448157      -1.50796927
H       -1.45168434      -2.36613643       2.25054673
