27
Properties=species:S:1:pos:R:3 pbc="F F F"
C       -0.92224521       2.63417808       3.15806080
C       -0.56924521       3.84917808       4.00806080
H       -1.04224521       1.75517808       3.79206080
H       -1.85224521       2.81817808       2.61906080
H       -0.13024521       2.45517808       2.43006080
H       -0.44524521       4.68517808       3.32106080
H        0.37153479       3.69058808       4.55559080
H       -1.39268521       4.10188208       4.69222780
C        1.77775479      -1.29882192      -3.25593920
C        0.28875479      -0.45582192       0.08506080
C        0.13175479      -0.89182192      -1.25593920
C        1.44075479      -0.90882192      -1.85493920
C        2.30675479      -0.49982192      -0.89093920
C       -0.78124521      -0.31282192       0.95206080
C       -2.04224521      -0.62082192       0.47606080
C       -2.23424521      -1.04982192      -0.84293920
C       -1.16024521      -1.18582192      -1.71693920
N        1.62475479      -0.22682192       0.27106080
H       -0.63424521       0.02617808       1.96506080
H       -2.89724521      -0.48482192       1.12406080
H        2.03775479       0.18417808       1.10606080
H       -3.23724521      -1.25182192      -1.19493920
H        3.37775479      -0.40682192      -1.02893920
H       -1.34624521      -1.46982192      -2.73793920
H        2.86175479      -1.38582192      -3.34293920
H        1.45175479      -0.49482192      -3.91693920
H        1.31541479      -2.24072192      -3.58618020
