26
Properties=species:S:1:pos:R:3 pbc="F F F"
C       -0.91603144       0.02346190      -2.91203941
C       -1.52203144       1.19846190      -3.62603941
H       -0.73103144      -0.80253810      -3.60003941
H        0.02896856       0.32046190      -2.45603941
H       -1.57503144      -0.32453810      -2.11703941
H       -1.81303144       1.92846190      -2.87803941
H       -2.41209144       0.86316190      -4.17863941
H       -0.81094144       1.69787190      -4.30052941
C        0.48196856      -1.93253810      -0.05803941
C       -0.36003144      -3.04053810       0.58496059
C        0.45296856      -0.59153810       0.62496059
C        1.64796856       0.03446190       0.94796059
C       -0.74103144       0.09046190       0.82796059
C        1.65296856       1.29546190       1.48896059
C       -0.73903144       1.34946190       1.39596059
C        0.46296856       1.96546190       1.71296059
H        1.51296856      -2.28553810      -0.09403941
H        0.15896856      -1.79553810      -1.08703941
H       -0.06103144      -3.98153810       0.15896059
H        2.58796856      -0.46053810       0.76296059
H       -1.67503144      -0.35353810       0.53196059
H        2.59196856       1.77346190       1.73196059
H       -1.67103144       1.86746190       1.56996059
H        0.47396856       2.96146190       2.13096059
H       -1.43936144      -2.95546810       0.39051059
H       -0.17898144      -3.13142810       1.66614059
