35
Properties=species:S:1:pos:R:3 pbc="F F F"
C        2.79635453      -3.10188887       3.20404618
C       -0.28064547      -1.24688887       2.00204618
C        1.00235453      -1.23788887       2.61204618
C        1.48235453      -2.60188887       2.64504618
C        0.50235453      -3.35188887       2.06804618
C       -1.02664547      -0.08788887       1.80404618
C       -0.48264547       1.10911113       2.23504618
C        0.78035453       1.15211113       2.84104618
C        1.52435453      -0.00988887       3.04004618
N       -0.55164547      -2.55088887       1.68504618
H       -2.00364547      -0.13088887       1.34604618
H       -1.04064547       2.02711113       2.10104618
H       -1.39064547      -2.89288887       1.23204618
H        1.17935453       2.10211113       3.16904618
H        0.55035453      -4.42688887       1.93304618
H        2.48935453       0.02411113       3.51604618
H        3.60835453      -2.61888887       2.66004618
H        2.86635453      -4.16788887       3.01504618
H        2.92936453      -2.91310887       4.27953618
C        0.03135453       4.32111113      -2.97695382
C       -1.19564547       0.94811113      -1.75395382
C       -1.06764547       0.17811113      -2.89795382
C       -0.84464547       2.28211113      -1.77995382
C       -0.34664547       2.86111113      -2.94795382
C       -0.58264547       0.73711113      -4.07295382
C       -0.22464547       2.07411113      -4.09295382
O       -1.42764547      -1.13188887      -2.85895382
H       -1.56064547       0.49611113      -0.84595382
H       -0.94364547       2.87811113      -0.88295382
H       -0.46164547       0.13611113      -4.96295382
H       -1.13864547      -1.61188887      -3.64295382
H        0.91035453       4.44911113      -3.61095382
H        0.30335453       4.64111113      -1.97195382
H        0.17435453       2.50711113      -4.99995382
H       -0.78419847       4.95559013      -3.35419182
