19
Properties=species:S:1:pos:R:3 pbc="F F F"
C        0.59052339       1.66969846       0.10036533
C        1.35552339       1.96069846      -1.17563467
C        1.48252339       0.60269846       0.74436533
H       -0.40847661       1.29469846      -0.10463467
H        0.53352339       2.55869846       0.72936533
H        1.21152339       1.17869846      -1.92163467
H        1.07052339       2.92169846      -1.60063467
H        1.39552339      -0.31430154       0.15736533
H        1.29352339       0.38469846       1.79536533
H        2.39239039       1.96519846      -0.80836467
H        2.48442739       1.03639846       0.60986533
C       -1.26047661      -1.48230154       0.41136533
C       -2.14747661      -2.63830154      -0.07163467
H       -1.82147661      -0.85130154       1.10136533
H       -0.38447661      -1.88030154       0.92336533
H       -0.94047661      -0.88630154      -0.44363467
H       -2.46647661      -3.22330154       0.79136533
H       -3.03730661      -2.24350154      -0.58378467
H       -1.56840961      -3.28150154      -0.75054467
