34
Properties=species:S:1:pos:R:3 pbc="F F F"
C       -0.88925838       0.67762181      -2.07181902
C       -1.48325838       0.13062181      -3.36981902
C       -1.73325838       0.49462181      -0.81781902
C       -1.78825838       1.49862181       0.14818098
C       -2.43625838      -0.68537819      -0.59581902
C       -2.54125838       1.34562181       1.30418098
C       -3.18525838      -0.85437819       0.56518098
C       -3.23125838       0.16362181       1.51618098
O       -3.96725838       0.00562181       2.65218098
H        0.07374162       0.19462181      -1.90881902
H       -0.70325838       1.73562181      -2.20781902
H       -1.59825838      -0.94837819      -3.26281902
H       -1.24225838       2.41462181      -0.00881902
H       -2.39325838      -1.49637819      -1.30681902
H       -2.57625838       2.13962181       2.03818098
H       -3.73625838      -1.76737819       0.73418098
H       -3.91725838       0.77862181       3.22618098
H       -0.80768938       0.35430181      -4.20860902
H       -2.47052538       0.57918181      -3.55447902
C        5.39274162       0.55762181      -0.01681902
C        1.45474162      -1.13437819       0.16518098
C        1.65174162       0.20262181       0.47818098
C        2.53774162      -1.92737819      -0.19781902
C        2.93074162       0.75262181       0.40718098
C        3.81374162      -1.38037819      -0.24581902
C        4.01574162      -0.03337819       0.03018098
H        0.46074162      -1.56037819       0.21218098
H        0.81474162       0.81762181       0.77718098
H        2.39174162      -2.97337819      -0.43181902
H        3.07674162       1.79662181       0.64718098
H        4.65374162      -2.00837819      -0.49781902
H        5.32274162       1.56262181      -0.43381902
H        6.01474162      -0.03037819      -0.69181902
H        5.87525162       0.60587181       0.97053098
