16
Properties=species:S:1:pos:R:3 pbc="F F F"
C        1.11152687      -0.10347890       1.21624813
C        2.62752687      -0.17747890       1.42924813
H        0.59352687      -0.52047890       2.08024813
H        0.80452687       0.93452110       1.07924813
H        0.84052687      -0.68447890       0.33324813
H        3.09952687       0.28652110       0.57124813
H        2.92430687      -1.23584690       1.47143813
H        2.91606687       0.38425210       2.32991813
C       -1.43647313       0.74152110      -1.12775187
C       -2.30447313      -0.45847890      -1.51575187
H       -1.71347313       1.10052110      -0.13675187
H       -0.38747313       0.45852110      -1.12475187
H       -1.56547313       1.54752110      -1.84975187
H       -2.19947313      -1.21147890      -0.73375187
H       -3.36459513      -0.17687290      -1.59845187
H       -1.92544313      -0.90753790      -2.44563187
