30
Properties=species:S:1:pos:R:3 pbc="F F F"
C       -2.21790385      -3.47872808       3.06121890
C       -0.73090385      -3.52072808       3.52621890
H       -2.86190385      -3.90472808       3.83321890
H       -2.52190385      -2.45472808       2.87221890
H       -2.33990385      -4.05172808       2.13921890
H       -0.09990385      -3.09372808       2.74421890
H       -0.41608385      -4.55752808       3.71580890
H       -0.55641385      -2.90894808       4.42358890
C       -1.43590385      -1.03272808       0.27621890
C       -2.45390385      -0.26272808       1.15121890
C       -0.13990385      -0.28972808       0.09221890
C        0.91909615      -0.30072808       0.93821890
C        0.18609615       0.63927192      -0.96778110
C        1.47909615       1.15727192      -0.69578110
C       -0.46990385       1.09727192      -2.12878110
C        2.11709615       2.09027192      -1.52578110
C        0.17509615       2.03727192      -2.95778110
C        1.45609615       2.52927192      -2.65678110
N        1.88909615       0.56627192       0.47721890
H       -1.20590385      -1.96472808       0.78821890
H       -1.81690385      -1.26372808      -0.72378110
H       -2.08090385      -0.24572808       2.17721890
H        0.90209615      -0.93172808       1.82021890
H        2.77309615       0.75127192       0.93721890
H       -1.45890385       0.74127192      -2.40478110
H        3.10509615       2.44527192      -1.26178110
H       -0.33790385       2.37827192      -3.84578110
H        1.92709615       3.25127192      -3.30878110
H       -3.42835385      -0.77218808       1.12106890
H       -2.53690385       0.78625192       0.83065890
