16
Properties=species:S:1:pos:R:3 pbc="F F F"
C        0.90316726      -1.42890879      -0.21323377
C        2.14716726      -2.25390879      -0.52223377
H        0.41216726      -1.14990879      -1.14723377
H        0.20616726      -2.01690879       0.38276623
H        1.18516726      -0.52290879       0.32676623
H        2.65516726      -2.42090879       0.42076623
H        2.82941726      -1.72103879      -1.20089377
H        1.82227726      -3.23946879      -0.88709377
C       -1.14083274       1.65609121      -0.27223377
C       -1.90283274       2.03209121       1.00276623
H       -0.09483274       1.96009121      -0.20523377
H       -1.18183274       0.57709121      -0.40523377
H       -1.59383274       2.12509121      -1.14223377
H       -2.91683274       1.65609121       0.89976623
H       -1.96221674       3.12292121       1.13143623
H       -1.44028174       1.56593121       1.88522623
