25
Properties=species:S:1:pos:R:3 pbc="F F F"
C        3.51225056      -1.19799280      -1.85167819
C        0.93125056      -0.29599280       0.79732181
C        2.01125056      -0.21899280      -0.07567819
C        0.16025056      -1.45099280       0.83832181
C        2.33225056      -1.28799280      -0.90967819
C        0.47525056      -2.52899280       0.01832181
C        1.55625056      -2.44399280      -0.84967819
O       -0.89774944      -1.53099280       1.69432181
H        0.74025056       0.51400720       1.48532181
H        2.62125056       0.67600720      -0.09467819
H       -1.16474944      -0.65999280       2.00432181
H       -0.11274944      -3.42799280       0.07932181
H        3.60925056      -0.16599280      -2.19267819
H        3.29025056      -1.80399280      -2.72467819
H        1.79225056      -3.28599280      -1.48767819
H        4.46721056      -1.51082280      -1.40425819
C       -1.83174944       2.69600720      -1.35967819
C       -2.31774944       2.49900720       0.07432181
O       -3.45174944       2.83300720       0.40932181
N       -1.45874944       1.97400720       0.93732181
H       -1.73374944       1.93400720       1.90832181
H       -0.51574944       1.78500720       0.63732181
H       -1.52174944       1.73900720      -1.77567819
H       -0.95174944       3.34000720      -1.31267819
H       -2.58925944       3.17319720      -1.99878619
