16
Properties=species:S:1:pos:R:3 pbc="F F F"
C       -1.53963958       0.46339472      -1.39634257
C       -2.68563958       0.55439472      -0.39534257
H       -0.67663958       1.01539472      -1.03034257
H       -1.26563958      -0.58060528      -1.54734257
H       -1.84563958       0.87839472      -2.35434257
H       -3.56563958       0.07339472      -0.82034257
H       -2.89001358       1.60853472      -0.15655257
H       -2.43898558       0.00339472       0.52419743
C        1.38436042      -0.31660528       0.97565743
C        2.84436042      -0.69960528       0.81965743
H        1.22836042       0.33539472       1.83165743
H        1.06736042       0.21339472       0.08065743
H        0.77036042      -1.20960528       1.09865743
H        3.42636042       0.19339472       0.58765743
H        3.20530042      -1.14273528       1.75952743
H        2.94380542      -1.40716528      -0.01668257
