16
Properties=species:S:1:pos:R:3 pbc="F F F"
C        1.29289515      -0.24275993      -1.33032083
C        2.12489515       0.92124007      -1.86332083
H        0.24689515      -0.12875993      -1.61432083
H        1.65789515      -1.17475993      -1.76332083
H        1.38289515      -0.29975993      -0.24832083
H        1.97989515       0.96624007      -2.93932083
H        1.80899515       1.86609007      -1.39698603
H        3.19563515       0.75651007      -1.67258183
C       -1.70810485      -0.83975993       1.03267917
C       -1.70210485       0.16524007       2.16367917
H       -0.97810485      -1.62675993       1.19767917
H       -2.69710485      -1.29375993       0.96267917
H       -1.48810485      -0.33575993       0.09267917
H       -1.94610485      -0.35775993       3.08967917
H       -2.50110485       0.87724007       1.96567917
H       -0.75201485       0.70405007       2.29408417
