16
Properties=species:S:1:pos:R:3 pbc="F F F"
C        1.34546404      -0.22132589       0.79255314
C        2.43046404      -1.02632589       1.51255314
H        1.24146404      -0.57932589      -0.23344686
H        0.39146404      -0.32032589       1.31255314
H        1.61846404       0.83267411       0.75955314
H        2.45246404      -0.74532589       2.56755314
H        3.37862404      -0.77113989       1.01669314
H        2.21321404      -2.10312989       1.45515314
C       -1.39653596       1.19867411      -1.18944686
C       -2.37853596       0.04067411      -1.10844686
H       -0.57553596       1.04167411      -0.49844686
H       -1.00353596       1.27567411      -2.20444686
H       -1.87353596       2.13667411      -0.92944686
H       -3.15553596       0.22167411      -1.84844686
H       -2.83415596       0.00382711      -0.10791686
H       -1.86359596      -0.89400789      -1.37529686
