16
Properties=species:S:1:pos:R:3 pbc="F F F"
C       -0.19348624       1.54777896       1.55853816
C       -1.71848624       1.61877896       1.45253816
H        0.18951376       0.74677896       0.93953816
H        0.25551376       2.48577896       1.23553816
H        0.11851376       1.39077896       2.59153816
H       -2.06548624       2.36377896       2.16753816
H       -2.18813424       0.65394396       1.69445816
H       -2.02437024       1.92896096       0.44247816
C        0.49451376      -1.27022104      -0.98946184
C        1.41051376      -1.90522104      -2.02446184
H       -0.01748624      -2.03922104      -0.41046184
H        1.11551376      -0.67922104      -0.32046184
H       -0.23048624      -0.61322104      -1.46946184
H        1.83351376      -1.11422104      -2.64246184
H        0.84665476      -2.60074304      -2.66345184
H        2.24949376      -2.41753304      -1.53086184
