16
Properties=species:S:1:pos:R:3 pbc="F F F"
C       -2.01391312      -0.10552392       0.51026161
C       -2.73291312       0.99547608      -0.27073839
H       -1.33391312      -0.65352392      -0.14373839
H       -1.44591312       0.32047608       1.33726161
H       -2.73591312      -0.79252392       0.94326161
H       -3.46091312       1.45747608       0.39626161
H       -3.26177312       0.55986608      -1.13128839
H       -2.04346312       1.77039608      -0.63700839
C        1.80408688      -0.28252392       0.35726161
C        2.94708688      -0.60452392      -0.60073839
H        1.24808688      -1.18752392       0.60826161
H        2.19108688       0.16747608       1.27226161
H        1.12408688       0.43047608      -0.11273839
H        3.52408688       0.29747608      -0.81573839
H        2.53266888      -1.04647392      -1.51885839
H        3.61006888      -1.35820392      -0.15082839
