22
Properties=species:S:1:pos:R:3 pbc="F F F"
C        2.26526046      -0.17860667       0.62348679
C        3.68926046      -0.64260667       0.90948679
H        1.70826046      -0.05960667       1.55248679
H        2.27826046       0.78239333       0.12048679
H        1.77926046      -0.92160667      -0.00351321
H        4.12226046      -1.03760667      -0.00651321
H        3.63583046      -1.42740767       1.67840679
H        4.31057046       0.20266633       1.24036679
C       -1.28173954       0.29339333      -0.14651321
C       -1.52173954       1.52439333      -1.01951321
C       -2.52273954      -0.10560667       0.65848679
C       -0.80973954      -0.84960667      -1.03851321
H       -0.48473954       0.52139333       0.55948679
H       -2.20573954       1.25539333      -1.82151321
H       -0.57273954       1.77339333      -1.49051321
H       -3.37673954      -0.23060667      -0.00751321
H       -2.33273954      -1.04860667       1.17048679
H       -2.74273954       0.65139333       1.40848679
H       -0.03073954      -0.50160667      -1.71551321
H       -0.39173954      -1.62860667      -0.41151321
H       -1.64473954      -1.24360667      -1.62051321
H       -1.88983954       2.41979633      -0.49725321
