23
Properties=species:S:1:pos:R:3 pbc="F F F"
C       -1.36396656      -2.63255961       0.33201045
C       -1.63296656      -4.14355961       0.39501045
H       -0.54296656      -2.42355961      -0.35598955
H       -2.24996656      -2.09555961      -0.00398955
H       -1.10096656      -2.26555961       1.31901045
H       -2.49796656      -4.29555961       1.04301045
H       -0.77738656      -4.65747961       0.85747045
H       -1.90336656      -4.55237961      -0.58974955
C        0.15303344       0.49244039       1.55301045
C       -0.20096656       1.71544039       2.39101045
C        0.48803344       0.79644039       0.13601045
C        1.68203344       0.74644039      -0.50598955
C        0.15403344       1.34044039      -1.95298955
N       -0.46296656       1.14744039      -0.79198955
N        1.45303344       1.10444039      -1.80898955
H        1.00203344      -0.02155961       2.00401045
H       -0.70096656      -0.17855961       1.56501045
H        0.60503344       2.44544039       2.31001045
H        2.63403344       0.48144039      -0.06098955
H       -0.32796656       1.62644039      -2.87998955
H        2.14503344       1.16844039      -2.54798955
H       -0.29922656       1.39814039       3.43966045
H       -1.15474656       2.15548039       2.06441045
