23
Properties=species:S:1:pos:R:3 pbc="F F F"
C       -0.04881438       1.07826527      -3.95308185
C       -1.34281438       0.87826527      -4.72608185
H        0.30018562       2.10626527      -4.05008185
H       -0.25681438       0.84926527      -2.91608185
H        0.71418562       0.39226527      -4.32208185
H       -1.69781438      -0.13073473      -4.52008185
H       -1.18086038       0.98695527      -5.80865183
H       -2.10565438       1.58435527      -4.36621085
C       -0.11581438      -1.38073473       3.58891815
C        0.50118562       0.47726527      -0.23508185
C       -0.15781438       1.17326527       0.77491815
C        0.94618562      -0.81073473      -0.00608185
C       -0.36681438       0.57326527       2.01691815
C        0.72918562      -1.40873473       1.23591815
C        0.07218562      -0.72073473       2.25491815
H        0.75518562       0.98126527      -1.15108185
H       -0.47581438       2.19326527       0.60691815
H        1.51718562      -1.33073473      -0.75408185
H       -0.86881438       1.16326527       2.76091815
H        1.09518562      -2.41073473       1.41291815
H        0.87618562      -1.46673473       4.03591815
H       -0.48981438      -2.39473473       3.43691815
H       -0.76430338      -0.84773473       4.29981815
