21
Properties=species:S:1:pos:R:3 pbc="F F F"
C        0.32942138       0.72136322       1.12848520
C        1.50942138       0.60836322       0.18848520
C       -1.00357862       2.17236322       3.00048520
S        0.59242138       2.11336322       2.23248520
H       -0.59657862       0.85236322       0.56948520
H        0.25642138      -0.18863678       1.72348520
H        1.46142138      -0.36163678      -0.29851480
H        2.42442138       0.63836322       0.78148520
H       -1.12757862       1.31136322       3.65848520
H       -1.08157862       3.09436322       3.57748520
H       -1.77857862       2.15936322       2.23848520
H        1.55081138       1.38162322      -0.59276480
C       -1.12757862      -1.98663678      -0.89051480
C        0.81442138      -2.38863678      -2.64851480
S       -0.81657862      -1.63263678      -2.58751480
H       -0.31657862      -1.62463678      -0.26351480
H       -2.05857862      -1.50563678      -0.58551480
H       -1.22657862      -3.06463678      -0.75351480
H        0.72442138      -3.47063678      -2.58851480
H        1.43442138      -2.01763678      -1.83351480
H        1.24232138      -2.08917778      -3.61661480
