21
Properties=species:S:1:pos:R:3 pbc="F F F"
C        0.68867668       0.50278300       0.76991092
C        2.16967668       0.13178300       0.82391092
C        0.06467668       0.61978300       2.15291092
O        0.73967668       0.31778300       3.16291092
O       -1.12432332       0.99478300       2.22691092
H        0.55067668       1.42878300       0.20791092
H        0.15767668      -0.29221700       0.24991092
H        2.30567668      -0.61321700       1.60891092
H        2.79049668       1.00996300       1.05493092
H        2.47750668      -0.37259700      -0.10390908
C       -0.55032332      -0.74321700      -2.57308908
C       -1.72432332       0.13578300      -3.03508908
C       -0.25332332      -1.92121700      -3.49308908
H        0.34067668      -0.11621700      -2.52508908
H       -0.74432332      -1.12021700      -1.57508908
H       -1.43032332       0.54978300      -3.99108908
H       -0.30632332      -1.61421700      -4.53708908
H        0.74667668      -2.29721700      -3.27908908
H       -0.95832332      -2.72721700      -3.31208908
H       -2.63638432      -0.45620700      -3.20149808
H       -1.89599632       0.97188300      -2.34121208
