29
Properties=species:S:1:pos:R:3 pbc="F F F"
C       -0.88001064      -0.14403366      -3.05866449
C       -1.51401064      -0.34103366      -4.45466449
C        0.60498936      -0.52003366      -3.02266449
C       -1.04801064       1.29696634      -2.59866449
H       -1.39601064      -0.79703366      -2.35866449
H       -1.24801064       0.50596634      -5.07766449
H        1.15698936       0.04496634      -3.77166449
H        1.01398936      -0.28803366      -2.03866449
H        0.75698936      -1.58403366      -3.19166449
H       -2.10201064       1.56896634      -2.60966449
H       -0.66201064       1.40796634      -1.58566449
H       -0.50201064       1.96696634      -3.26666449
H       -2.60891864      -0.42225366      -4.38698449
H       -1.12456764      -1.25021366      -4.93603449
C       -0.07801064       1.99196634       3.33033551
C       -0.16301064      -0.73203366       0.67333551
C        0.82598936      -1.60303366       1.12633551
C       -0.44601064       0.43296634       1.38533551
C        0.25998936       0.74396634       2.55033551
C        1.53498936      -1.30403366       2.29233551
C        1.24498936      -0.13603366       3.00533551
H       -0.72201064      -0.97603366      -0.21666449
H        1.04398936      -2.51003366       0.57833551
H       -1.22101064       1.09696634       1.02933551
H        2.30198936      -1.97903366       2.64433551
H       -0.04201064       1.75196634       4.39433551
H       -1.10401064       2.28696634       3.10233551
H        1.78898936       0.08196634       3.91233551
H        0.59588036       2.83990634       3.13830951
