23
Properties=species:S:1:pos:R:3 pbc="F F F"
C       -1.38537227      -1.02441518       2.22495929
C        0.87462773      -0.72441518       1.09195929
C       -0.50037227      -1.00641518       0.99495929
C        1.65562773      -0.79141518      -0.03404071
C       -1.07637227      -1.25041518      -0.26004071
C        1.09662773      -0.96241518      -1.28604071
C       -0.28437227      -1.23241518      -1.41304071
H        1.32362773      -0.53141518       2.05595929
H        2.71862773      -0.60941518       0.04795929
H       -2.27937227      -0.44241518       1.99895929
H       -0.87837227      -0.52941518       3.05495929
H       -2.13837227      -1.44341518      -0.34104071
H        1.72362773      -0.93841518      -2.16904071
H       -0.72437227      -1.40241518      -2.38604071
H       -1.68679927      -2.03993518       2.52135929
C       -0.40437227       2.71658482      -0.08404071
C        0.22962773       3.40058482      -1.29404071
H        0.08062773       1.75858482       0.09995929
H       -0.28837227       3.34658482       0.79795929
H       -1.46937227       2.55858482      -0.24304071
H       -0.31137227       4.32058482      -1.51304071
H        0.20541473       2.72546482      -2.16216071
H        1.27402673       3.65011482      -1.05536071
