12
Properties=species:S:1:pos:R:3 pbc="F F F"
C        1.45055619      -1.79609597       1.11302796
O        0.94155619      -1.00109597       0.05502796
H        1.01055619      -0.05809597       0.27602796
H        0.91755619      -2.74709597       1.13702796
H        1.29755619      -1.29609597       2.06402796
H        2.52351619      -1.97601497       0.95058796
C       -1.86344381       1.19390403      -0.76097204
O       -0.54044381       1.47190403      -0.42797204
H       -0.52044381       2.42290403      -0.20197204
H       -2.50244381       1.95790403      -0.31797204
H       -2.13844381       0.22790403      -0.33597204
H       -2.03448381       1.17143703      -1.84736204
