22
Properties=species:S:1:pos:R:3 pbc="F F F"
C        0.08962648       0.93550221      -4.42066567
O       -0.45837352       0.19250221      -3.34866567
H       -0.09837352      -0.70549779      -3.37266567
H        0.31262648       0.25650221      -5.23766567
H        1.00262648       1.43350221      -4.09166567
H       -0.63372252       1.67830421      -4.78810567
C        2.19262648       0.40150221      -0.77366567
C       -0.03637352      -0.59949779      -0.16066567
C        1.09562648       0.11650221       0.22133433
C       -1.05337352      -0.86349779       0.75033433
C       -0.94237352      -0.41049779       2.05833433
C        1.19762648       0.56250221       1.53733433
C        0.18362648       0.30350221       2.45533433
O       -1.93937352      -0.67649779       2.94433433
H       -0.12437352      -0.97749779      -1.16566567
H       -1.92637352      -1.41949779       0.43833433
H        2.68662648       1.33350221      -0.49166567
H        1.73462648       0.56250221      -1.74966567
H        2.07362648       1.11650221       1.84933433
H       -2.65537352      -1.17249779       2.54033433
H        0.25062648       0.66250221       3.47233433
H        2.94037048      -0.40093779      -0.85714867
