17
Properties=species:S:1:pos:R:3 pbc="F F F"
C        1.26444080      -0.57489324       2.20856057
C        0.27244080       0.12910676       1.31356057
O       -0.47455920      -0.50689324       0.56756057
N        0.23444080       1.45210676       1.39256057
H        0.71444080      -1.26989324       2.84556057
H        1.75244080       0.15510676       2.85556057
H       -0.44955920       1.96010676       0.85556057
H        0.88144080       1.94710676       1.98856057
H        2.02802080      -1.12713324       1.64112057
C       -0.13555920      -0.82689324      -2.84343943
N       -1.00255920       0.23110676      -2.25343943
H       -0.64755920       1.16110676      -2.43843943
H       -1.93855920       0.18110676      -2.64043943
H       -1.08155920       0.09610676      -1.24643943
H       -0.06355920      -0.68189324      -3.92643943
H       -0.55955920      -1.81989324      -2.66243943
H        0.87217080      -0.78122324      -2.40482143
