23
Properties=species:S:1:pos:R:3 pbc="F F F"
C       -3.09016022       2.61289263      -0.31914560
C       -2.90116022       1.50689263      -1.35214560
O       -3.86116022       1.20589263      -2.09814560
O       -1.79916022       0.91789263      -1.40614560
H       -2.14416022       3.13289263      -0.14914560
H       -3.39816022       2.15789263       0.61985440
H       -3.85663122       3.33910263      -0.62760360
C        4.23683978      -2.10610737       0.48485440
C        0.34383978      -0.28110737       0.81685440
C        1.02983978      -0.24910737      -0.39814560
C        0.92783978      -0.87910737       1.93585440
C        2.29783978      -0.82110737      -0.49414560
C        2.19883978      -1.44910737       1.82985440
C        2.89283978      -1.42910737       0.61585440
O       -0.90216022       0.26189263       0.90485440
H       -1.20416022       0.53789263       0.00785440
H        0.58383978       0.22189263      -1.25714560
H        0.38783978      -0.91010737       2.87085440
H        2.83483978      -0.78210737      -1.43214560
H        2.63883978      -1.93010737       2.69285440
H        4.72783978      -2.14010737       1.45785440
H        4.85683978      -1.49110737      -0.17014560
H        4.16347978      -3.12306137       0.07203140
