21
Properties=species:S:1:pos:R:3 pbc="F F F"
C       -1.91946658      -0.28324705      -2.63512380
C       -1.96846658      -0.47724705      -1.11912380
O       -1.28746658      -1.32224705      -0.53712380
N       -2.64646658       0.43975295      -0.44812380
H       -2.88846658       0.06175295      -3.00012380
H       -1.69246658      -1.24224705      -3.10012380
H       -2.67046658       0.37075295       0.55787620
H       -3.19346658       1.13075295      -0.93712380
H       -1.14156658       0.45443295      -2.88149580
C        0.40453342       1.90975295       1.98187620
C        1.46353342       0.82175295      -0.12312380
C        1.08953342       0.83275295       1.17687620
C        2.04253342      -1.11824705       0.74187620
N        2.04053342      -0.40524705      -0.37012380
N        1.46053342      -0.40324705       1.70687620
H        1.33053342       1.62875295      -0.83012380
H        2.43353342      -0.72824705      -1.25512380
H       -0.49646658       1.48075295       2.42087620
H        0.12153342       2.70975295       1.30487620
H        2.44053342      -2.12324705       0.84087620
H        1.06346342       2.28341295       2.77949120
