16
Properties=species:S:1:pos:R:3 pbc="F F F"
C        0.50386267      -0.73845130       1.53128601
C        1.63886267      -1.62045130       2.04428601
H        0.89886267       0.16954870       1.07528601
H       -0.06813733      -1.28645130       0.78228601
H       -0.16113733      -0.47145130       2.35228601
H        1.19186267      -2.54945130       2.40128601
H        2.14436267      -1.13275130       2.89081601
H        2.33863267      -1.87510630       1.23466601
C       -1.35913733       0.97454870      -1.11871399
C       -0.77113733       1.39254870      -2.45471399
H       -0.77613733       1.39054870      -0.29671399
H       -2.38413733       1.33954870      -1.04071399
H       -1.37113733      -0.11345130      -1.04171399
H       -1.42213733       0.97754870      -3.22471399
H        0.23478267       0.96749270      -2.58682399
H       -0.77403733       2.48632870      -2.57149399
