35
Properties=species:S:1:pos:R:3 pbc="F F F"
C       -0.01453256       5.31056410       0.27603046
C        0.12446744       1.39356410       2.03803046
C       -1.03753256       1.83256410       1.41303046
C        1.24246744       2.22256410       2.09003046
C       -1.08053256       3.10156410       0.84303046
C        1.18946744       3.48956410       1.51803046
C        0.03346744       3.93556410       0.88303046
O        0.17746744       0.15556410       2.60203046
H       -1.90453256       1.19256410       1.37703046
H       -0.67153256      -0.34343590       2.59303046
H        2.14146744       1.87856410       2.57703046
H       -1.99153256       3.44456410       0.37003046
H        2.06046744       4.13156410       1.56703046
H       -0.76353256       5.33956410      -0.51796954
H        0.95646744       5.50856410      -0.17596954
H       -0.22943256       6.09156410       1.02024946
C        1.89946744      -1.27243590      -0.10896954
C        2.22846744      -2.17543590       1.07503046
C        0.73846744      -1.81443590      -0.90596954
C       -0.56253256      -1.67443590      -0.43296954
C        0.95146744      -2.50443590      -2.09696954
C       -1.63853256      -2.18743590      -1.14496954
C       -0.11953256      -3.02143590      -2.81996954
C       -1.41553256      -2.86243590      -2.33996954
O       -2.47253256      -3.36043590      -3.03096954
H        1.64746744      -0.27443590       0.25003046
H        2.77646744      -1.18043590      -0.75096954
H        1.31646744      -2.26143590       1.66803046
H       -0.74153256      -1.14743590       0.49303046
H        1.96146744      -2.64343590      -2.45996954
H       -2.64153256      -2.06743590      -0.76096954
H        0.03646744      -3.54643590      -3.74896954
H       -3.29153256      -3.29243590      -2.53896954
H        3.01291544      -1.74542590       1.71513346
H        2.49879744      -3.18013790       0.71796346
