18
Properties=species:S:1:pos:R:3 pbc="F F F"
C       -2.26905745       1.60612851       0.03066624
C       -0.97805745       1.43912851       0.79266624
O        0.09294255       1.74112851       0.22166624
O       -1.03105745       0.97312851       1.94066624
H       -3.04605745       0.96412851       0.44266624
H       -2.08105745       1.26712851      -0.97933376
H       -2.63943645       2.64189851       0.03281924
C        1.04194255      -1.34587149      -0.81633376
C        0.54594255      -2.25587149      -1.93533376
N        2.29094255      -1.88487149      -0.20033376
H        1.23894255      -0.34787149      -1.21933376
H        0.25494255      -1.25187149      -0.05933376
H        0.28094255      -3.22787149      -1.51633376
H        1.34894255      -2.41187149      -2.66033376
H        3.04194255      -1.94987149      -0.87733376
H        2.61194255      -1.28187149       0.54866624
H        2.14494255      -2.80787149       0.19266624
H       -0.32997745      -1.85204149      -2.46419076
