23
Properties=species:S:1:pos:R:3 pbc="F F F"
C        4.62507680       0.17836333       0.19800966
C        3.46407680       1.08436333      -0.15299034
O        2.31807680       0.60036333      -0.14499034
O        3.71507680       2.27336333      -0.45099034
H        5.24707680       0.64136333       0.96700966
H        5.23607680       0.06936333      -0.69899034
H        4.28622680      -0.81444667       0.52894966
C       -3.88992320      -2.48863667       1.12200966
C       -0.66892320      -0.49363667       0.66900966
C       -1.00292320       0.33736333      -0.39899034
C       -1.59892320      -1.41863667       1.14400966
C       -2.86692320      -1.52463667       0.56200966
C       -2.26092320       0.24136333      -0.99299034
C       -3.18792320      -0.68463667      -0.50899034
O       -0.11492320       1.25736333      -0.85399034
H        0.30707680      -0.40963667       1.12300966
H       -1.33692320      -2.03463667       1.99100966
H       -2.52092320       0.88436333      -1.81599034
H       -0.47992320       1.77736333      -1.57399034
H       -4.80992320      -1.93663667       1.29100966
H       -3.54592320      -2.83363667       2.09800966
H       -4.17392320      -0.72063667      -0.95399034
H       -4.11844320      -3.36894667       0.50327966
