16
Properties=species:S:1:pos:R:3 pbc="F F F"
C        0.37365435      -1.62963306      -0.63144746
C        0.10165435      -3.07363306      -1.04244746
H        1.32965435      -1.54763306      -0.11544746
H        0.39365435      -0.99863306      -1.52044746
H       -0.42734565      -1.26463306       0.01055254
H       -0.89534565      -3.15263306      -1.46144746
H        0.18189435      -3.73850306      -0.16980746
H        0.82215435      -3.38953306      -1.81126746
C       -0.35834565       1.66336694       0.53555254
C       -0.11434565       3.03736694       1.14655254
H       -0.94034565       1.04536694       1.21455254
H       -0.89934565       1.77336694      -0.40244746
H        0.56665435       1.15936694       0.28755254
H        0.68765435       3.52636694       0.59355254
H        0.16840435       2.95862694       2.20667254
H       -1.01887565       3.65864694       1.07015254
