32
Properties=species:S:1:pos:R:3 pbc="F F F"
C        1.49701605       2.53531209       2.53827755
C        1.89801605       0.42731209       1.21327755
C        2.07201605       1.80031209       1.34627755
C        2.51001605      -0.24668791       0.20627755
C        2.84901605       2.48731209       0.39927755
C        3.30401605       0.45031209      -0.71472245
C        3.44701605       1.81331209      -0.65472245
O        3.89201605      -0.20068791      -1.71272245
H        1.12901605      -0.06068791       1.76827755
H        2.34901605      -1.30668791       0.07527755
H        0.67301605       1.97531209       2.98427755
H        1.13501605       3.51431209       2.21927755
H        2.99201605       3.55531209       0.49727755
H        4.03501605       2.34731209      -1.38672245
H        4.03601605       0.38531209      -2.49272245
H        2.31616605       2.65600209       3.26244755
C       -4.01398395      -1.81668791      -2.82272245
C       -1.35898395      -0.74268791      -0.29472245
C       -2.07598395      -0.79768791       0.87727755
C       -1.97298395      -1.08168791      -1.50972245
C       -3.31098395      -1.47668791      -1.53472245
C       -3.38898395      -1.15768791       0.85127755
C       -4.01498395      -1.48268791      -0.34072245
O       -1.53998395      -0.48268791       2.10227755
H       -0.32398395      -0.43968791      -0.27272245
H       -1.40298395      -1.04068791      -2.42772245
H       -3.94998395      -1.07968791       1.75827755
H       -2.19598395      -0.62868791       2.81427755
H       -4.46898395      -2.80068791      -2.70172245
H       -3.28898395      -1.88168791      -3.63372245
H       -5.06698395      -1.74068791      -0.33572245
H       -4.79744995      -1.08425791      -3.06710245
