20
Properties=species:S:1:pos:R:3 pbc="F F F"
C       -0.54904777       1.78900522      -0.15314599
C        0.32895223       3.01100522      -0.38014599
C       -1.44804777       1.52100522      -1.35714599
H        0.12595223       0.94400522      -0.03014599
H       -1.14504777       1.91000522       0.75285401
H        0.83495223       2.90700522      -1.33914599
H        1.08295223       3.05200522       0.40585401
H       -2.16004777       2.34500522      -1.47114599
H       -0.82504777       1.50000522      -2.26014599
H       -0.25503777       3.94251522      -0.34481599
H       -1.97816777       0.56265522      -1.25451599
C        0.23895223      -1.75099478       1.03185401
C        1.64895223      -2.32299478       1.19085401
O       -0.23504777      -1.93099478      -0.29214599
H       -0.43204777      -2.26399478       1.72285401
H        0.24395223      -0.69599478       1.29385401
H        1.60195223      -3.39699478       0.99685401
H       -0.32404777      -2.88299478      -0.46714599
H        2.00690223      -2.16818478       2.21939401
H        2.33486223      -1.88107478       0.45312401
