27
Properties=species:S:1:pos:R:3 pbc="F F F"
C       -0.16147301      -1.71486429      -1.05079708
C       -0.45447301      -3.16186429      -1.39979708
C        1.29452699      -1.62686429      -0.53079708
C       -0.37947301      -0.80086429      -2.26779708
H       -0.82347301      -1.39386429      -0.25279708
H       -0.32647301      -3.77086429      -0.50479708
H        0.26752699      -3.48586429      -2.14679708
H        1.98752699      -1.99586429      -1.28979708
H        1.54752699      -0.59086429      -0.30779708
H        1.40052699      -2.22086429       0.37820292
H       -1.44247301      -0.72986429      -2.50079708
H       -0.02447301       0.20013571      -2.02879708
H        0.17152699      -1.18186429      -3.12779708
H       -1.45886301      -3.34650429      -1.80859708
C       -0.09647301       2.83413571      -0.36179708
C       -0.04747301       1.07213571       1.35820292
N       -0.66147301       1.70313571       0.36520292
N        1.18052699       1.44413571       1.76220292
N       -0.73247301       0.13513571       2.01320292
H       -1.60147301       1.38413571       0.10320292
H        1.68652699       2.17413571       1.28920292
H        1.62752699       0.97713571       2.54020292
H       -1.66747301      -0.12786429       1.68020292
H       -0.31147301      -0.39386429       2.76720292
H        0.51152699       2.48213571      -1.19779708
H        0.50952699       3.46813571       0.28920292
H       -0.93679301       3.43222571      -0.74408708
