22
Properties=species:S:1:pos:R:3 pbc="F F F"
C       -0.26604211      -1.12886819      -2.28114158
C       -0.62004211      -2.59586819      -2.42114158
H        0.79295789      -0.99986819      -2.06614158
H       -0.49204211      -0.61186819      -3.21414158
H       -0.85704211      -0.67986819      -1.48514158
H       -0.07804211      -3.01586819      -3.26614158
H       -0.34064911      -3.13382419      -1.50324158
H       -1.69498211      -2.70228319      -2.62893958
C        0.17495789       0.63113181       1.08285842
C        0.31295789       0.50813181       2.61485842
C       -1.03304211       1.48413181       0.70085842
C        1.45495789       1.18913181       0.45885842
H        0.02595789      -0.36486819       0.67085842
H        1.22695789      -0.04686819       2.83685842
H       -0.88504211       2.52813181       0.97885842
H       -1.17404211       1.44513181      -0.37914158
H       -1.93704211       1.10513181       1.17685842
H        2.31095789       0.58213181       0.75585842
H        1.36995789       1.15313181      -0.62714158
H        1.61495789       2.22413181       0.75585842
H       -0.54133611      -0.02655919       3.05563842
H        0.37550689       1.49799781       3.09051842
