23
Properties=species:S:1:pos:R:3 pbc="F F F"
C       -3.04738116      -3.08197255      -0.09288187
C       -2.18038116      -2.10897255       0.69311813
O       -1.03938116      -2.48097255       1.02811813
O       -2.66838116      -0.98897255       0.97711813
H       -3.34238116      -3.90097255       0.55711813
H       -2.47238116      -3.49397255      -0.91888187
H       -3.95581916      -2.58915055      -0.46953387
C        2.31561884       2.72402745      -2.59688187
C        0.29161884       0.16502745      -0.62288187
C        0.69661884       0.45202745       0.68611813
C        0.81561884       0.90902745      -1.68388187
C        1.74061884       1.92902745      -1.45388187
C        1.60661884       1.47702745       0.92511813
C        2.12161884       2.20902745      -0.14188187
O        0.23661884      -0.26297255       1.74511813
H       -0.41138116      -0.63097255      -0.80488187
H        0.51261884       0.68102745      -2.69788187
H        1.92361884       1.70202745       1.93411813
H        0.61161884       0.05402745       2.56811813
H        2.13561884       2.20102745      -3.53788187
H        3.39661884       2.79202745      -2.45888187
H        2.83861884       2.99702745       0.05211813
H        1.89819284       3.74005395      -2.65558287
