19
Properties=species:S:1:pos:R:3 pbc="F F F"
C       -1.06211931      -0.47813785       0.93515338
C       -0.23311931      -1.09013785       2.06715338
C       -2.54311931      -0.37113785       1.25215338
H       -0.67611931       0.51086215       0.68615338
H       -0.94711931      -1.11113785       0.05315338
H       -0.71111931      -2.01113785       2.41015338
H       -2.88311931      -1.33113785       1.63515338
H       -2.68511931       0.38986215       2.02015338
H       -0.10562931      -0.37499785       2.89318338
H        0.77028069      -1.34534785       1.69560338
H       -3.11772931      -0.12384785       0.34734338
C        1.32388069       0.46286215      -1.91684662
C        2.43788069       1.44986215      -2.26384662
H        0.41388069       0.97986215      -1.61284662
H        1.07988069      -0.12113785      -2.80584662
H        1.64388069      -0.22313785      -1.13484662
H        2.08888069       2.14386215      -3.00484662
H        2.74154069       2.02136215      -1.37436662
H        3.30031069       0.91409215      -2.68712662
