16
Properties=species:S:1:pos:R:3 pbc="F F F"
C       -1.55512971      -1.34349806      -0.38897394
C       -0.63412971      -1.84049806      -1.49797394
H       -2.59912971      -1.52949806      -0.64597394
H       -1.31612971      -1.84749806       0.54602606
H       -1.41312971      -0.27149806      -0.24497394
H        0.39487029      -1.78149806      -1.13497394
H       -0.73030971      -1.19373806      -2.38253594
H       -0.83808971      -2.89250806      -1.74630594
C        1.20887029       0.83550194       0.89402606
C        0.97787029       2.34750194       0.98602606
H        2.14087029       0.56750194       1.39102606
H        0.40587029       0.30250194       1.39502606
H        1.25387029       0.52150194      -0.14897394
H        1.03187029       2.64950194       2.02802606
H        1.73006029       2.91218194       0.41562506
H       -0.03060971       2.57487194       0.61017606
