16
Properties=species:S:1:pos:R:3 pbc="F F F"
C       -1.30101293      -0.12363787       1.10236245
C       -1.42401293       0.69936213       2.37236245
H       -1.64701293      -1.14063787       1.28536245
H       -1.89901293       0.32136213       0.30636245
H       -0.25801293      -0.16463787       0.81136245
H       -1.32501293       1.75036213       2.10336245
H       -0.61235293       0.43096213       3.06457945
H       -2.40894293       0.53929213       2.83526745
C        0.63298707      -0.45263787      -1.85563755
C        2.09398707      -0.12963787      -1.61863755
H        0.43098707      -1.50263787      -1.63863755
H        0.02498707       0.18936213      -1.22863755
H        0.32298707      -0.21963787      -2.86963755
H        2.22798707       0.95136213      -1.65963755
H        2.71550707      -0.60207787      -2.39356055
H        2.40467707      -0.47500787      -0.62154555
