19
Properties=species:S:1:pos:R:3 pbc="F F F"
C        1.49818844       0.84436313       0.85284553
C        3.11218844       0.54636313      -1.38015447
S        2.93418844      -0.11363687       0.27684553
H        0.72118844       0.84136313       0.08884553
H        1.10618844       0.38736313       1.76184553
H        1.79118844       1.86936313       1.07984553
H        2.20518844       0.32436313      -1.94415447
H        3.95018844       0.05636313      -1.87115447
H        3.27191744       1.63469313      -1.37579847
C       -2.05681156      -0.62063687       1.00184553
C       -3.16581156      -1.64863687       0.98184553
C       -1.99181156       0.14536313      -0.30715447
O       -1.52181156      -0.46163687      -1.30315447
O       -2.37081156       1.34136313      -0.34415447
H       -2.26281156       0.08336313       1.79684553
H       -1.09681156      -1.10263687       1.19684553
H       -2.90781156      -2.40063687       0.23484553
H       -4.11308256      -1.15532687       0.71854653
H       -3.17592356      -2.15063687       1.96056553
