16
Properties=species:S:1:pos:R:3 pbc="F F F"
C       -1.24961878      -0.90816622       0.83133809
C       -2.60061878      -1.38616622       1.35733809
H       -0.43261878      -1.49416622       1.23433809
H       -1.22961878      -0.98316622      -0.25366191
H       -1.09561878       0.13483378       1.11433809
H       -2.78261878      -2.39316622       0.98733809
H       -2.59346878      -1.38330622       2.45730809
H       -3.39734878      -0.73024622       0.97656809
C        1.97838122       0.54783378      -0.62466191
C        1.87438122       1.74883378      -1.55766191
H        2.78638122       0.69383378       0.08633809
H        1.04238122       0.39683378      -0.08966191
H        2.19438122      -0.34116622      -1.21566191
H        1.11138122       1.53083378      -2.30666191
H        2.83841122       1.90749378      -2.06310191
H        1.52827122       2.63356378      -1.00317191
