16
Properties=species:S:1:pos:R:3 pbc="F F F"
C       -1.00428359      -0.25414177       1.84714101
C       -1.95828359       0.93185823       1.90614101
H       -1.33628359      -0.97414177       1.09914101
H        0.00771641       0.05885823       1.60014101
H       -0.95228359      -0.75114177       2.81514101
H       -1.67228359       1.57485823       2.74014101
H       -2.98939359       0.58886823       2.07693101
H       -1.87843359       1.52779823       0.98501101
C        1.08071641      -0.60314177      -1.28885899
C        1.88071641      -0.07014177      -2.46685899
H        1.37371641      -0.09014177      -0.37185899
H        0.01371641      -0.45014177      -1.46385899
H        1.26671641      -1.67114177      -1.16885899
H        1.60771641      -0.65114177      -3.35185899
H        2.95522641      -0.19491177      -2.26723099
H        1.61738641       0.97955823      -2.66381299
