27
Properties=species:S:1:pos:R:3 pbc="F F F"
C       -0.84904081      -0.45874198       1.59598492
C       -1.95904081      -1.36974198       2.10298492
C       -1.07104081      -0.20074198      -0.86001508
N       -1.21604081       0.26625802       0.37298492
N       -0.57904081      -1.40674198      -1.07001508
N       -1.40204081       0.55125802      -1.88801508
H       -0.63004081       0.27625802       2.37398492
H        0.05595919      -1.04974198       1.44698492
H       -2.21804081      -2.11174198       1.34698492
H       -2.83804081      -0.76174198       2.32198492
H       -1.59604081       1.19725802       0.48698492
H       -0.37504081      -2.02874198      -0.29301508
H       -0.51004081      -1.77274198      -2.00701508
H       -1.75904081       1.48525802      -1.76001508
H       -1.30304081       0.19725802      -2.82901508
H       -1.61688081      -1.87181198       3.01996492
C        2.30395919       0.87325802       0.51398492
C        2.76695919      -0.33474198      -0.29901508
C        2.02095919       2.12025802      -0.32301508
H        1.41095919       0.62025802       1.06998492
H        3.07295919       1.11425802       1.25098492
H        2.06695919      -0.47074198      -1.12301508
H        2.90795919       2.41825802      -0.88101508
H        1.21495919       1.90225802      -1.02501508
H        2.75712919      -1.24339198       0.32086492
H        3.78609919      -0.16187198      -0.67513508
H        1.71775919       2.94775802       0.33524492
