16
Properties=species:S:1:pos:R:3 pbc="F F F"
C        1.73755021      -0.80817331      -0.57980575
C        2.64455021       0.40782669      -0.42080575
H        2.17155021      -1.50417331      -1.29880575
H        1.63455021      -1.30417331       0.38219425
H        0.75155021      -0.51617331      -0.92880575
H        2.20555021       1.05982669       0.33019425
H        2.73838021       0.94857669      -1.37410675
H        3.63599021       0.09379669      -0.06242875
C       -2.05344979      -0.12917331      -0.18080575
C       -2.32244979       0.52882669       1.17819425
H       -1.85844979      -1.19517331      -0.07080575
H       -2.94144979      -0.02017331      -0.80180575
H       -1.21944979       0.36682669      -0.67280575
H       -3.22344979       0.10182669       1.60019425
H       -1.48470979       0.36647669       1.87234025
H       -2.48394979       1.61079669       1.06304525
