21
Properties=species:S:1:pos:R:3 pbc="F F F"
C       -0.15093862      -0.96422510      -1.07672549
C       -0.46393862      -2.30522510      -1.73472549
C       -1.39093862      -0.34522510      -0.44172549
O       -2.51393862      -0.82122510      -0.69372549
O       -1.24693862       0.62877490       0.32827451
H        0.59506138      -1.10222510      -0.29272549
H        0.25706138      -0.28422510      -1.82772549
H       -1.18793862      -2.15622510      -2.53772549
H       -0.89893862      -2.97222510      -0.98872549
H        0.42532138      -2.79106510      -2.16272549
C        1.89706138       1.54977490       0.64427451
C        3.00306138       0.62677490       1.05727451
N        0.78406138       1.45577490       1.63927451
H        2.26806138       2.57677490       0.56427451
H        1.53706138       1.23777490      -0.34172549
H        2.60206138      -0.37622510       1.22627451
H        3.45406138       0.99177490       1.98227451
H        0.89006138       2.12577490       2.39027451
H       -0.11593862       1.60877490       1.18327451
H        0.71606138       0.53277490       2.04627451
H        3.76793138       0.57014490       0.26875451
