26
Properties=species:S:1:pos:R:3 pbc="F F F"
C       -0.03058945      -1.52976292      -0.52556970
C        1.05041055      -2.21176292      -1.38856970
C        0.51441055      -0.54776292       0.45043030
C        0.70741055       0.78823708       0.09643030
C        0.85141055      -0.97576292       1.74943030
C        1.23341055       1.69323708       1.03643030
C        1.38641055      -0.08476292       2.69343030
C        1.57741055       1.25223708       2.34743030
H       -0.74858945      -1.03376292      -1.17156970
H       -0.57658945      -2.28876292       0.02843030
H        0.55041055      -2.96676292      -1.99956970
H        0.42041055       1.13723708      -0.88456970
H        0.67641055      -2.00576292       2.01843030
H        1.34941055       2.73123708       0.75943030
H        1.63341055      -0.43076292       3.68843030
H        1.97941055       1.95023708       3.06843030
H        1.83466055      -2.66936692      -0.76763970
H        1.58558055      -1.53148792      -2.06740970
C       -2.51958945       0.79723708      -2.31656970
C       -3.89058945       0.97023708      -3.02456970
H       -2.01558945      -0.07676292      -2.72456970
H       -1.90158945       1.67723708      -2.48956970
H       -2.66458945       0.66923708      -1.24356970
H       -4.36358945       1.87523708      -2.64956970
H       -4.50504945       0.09111708      -2.78048970
H       -3.74116945       1.06820708      -4.10995970
