20
Properties=species:S:1:pos:R:3 pbc="F F F"
C        0.73429593       3.05209359       2.57398695
C        0.78929593       0.91809359       1.32698695
N        0.66529593       0.33009359       0.15798695
N        0.57729593       2.22509359       1.37898695
N        1.13929593       0.21509359       2.39998695
H        0.72929593       0.87109359      -0.68801305
H        0.72029593      -0.67390641       0.08698695
H        0.31029593       2.68409359       0.52198695
H        1.24329593       0.68109359       3.28598695
H        1.30429593      -0.77590641       2.32698695
H        1.78729593       3.05309359       2.86498695
H        0.14729593       2.64609359       3.40198695
H        0.43029593       4.09334759       2.39129695
C       -2.04670407      -1.16590641      -2.79401305
C       -0.93070407      -1.69790641      -1.91601305
O       -1.18070407      -2.01190641      -0.73701305
O        0.20429593      -1.83790641      -2.42101305
H       -2.61470407      -2.01990641      -3.16901305
H       -1.59970407      -0.67190641      -3.66101305
H       -2.73550007      -0.46142641      -2.30486305
