17
Properties=species:S:1:pos:R:3 pbc="F F F"
C       -0.60203578      -1.87221309       0.78471293
C       -1.77303578      -2.75421309       0.44671293
H       -0.69503578      -0.96121309       0.20371293
H       -0.61603578      -1.62521309       1.84671293
H        0.33396422      -2.36421309       0.53171293
H       -1.84303578      -3.51121309       1.22771293
H       -1.69848578      -3.28881909      -0.51174707
H       -2.68718878      -2.14427109       0.49462293
C        0.24396422       1.13578691      -1.76928707
C        0.60996422       1.21778691      -0.29828707
O        0.00996422       1.94678691       0.44771293
N        1.52696422       0.46178691       0.31471293
H        0.22096422       0.08178691      -2.04628707
H        0.80796422       1.80278691      -2.42728707
H        1.74296422       0.71278691       1.26171293
H        1.98996422      -0.31521309      -0.11328707
H       -0.80718578       1.37900191      -1.98361707
