17
Properties=species:S:1:pos:R:3 pbc="F F F"
C       -1.30798841       2.04669837      -0.33997801
C       -2.78098841       1.91069837      -0.71097801
H       -0.75198841       1.18669837      -0.69197801
H       -0.90298841       2.94169837      -0.80897801
H       -1.17898841       2.15869837       0.73702199
H       -3.29898841       2.76869837      -0.28997801
H       -3.22314841       0.98201737      -0.32104801
H       -2.91356841       1.93735937      -1.80263801
C        1.18801159      -0.74530163       0.37502199
C        0.99101159      -1.60630163      -0.87397801
O        1.73101159      -1.49530163       1.45002199
H        1.84701159       0.09469837       0.14902199
H        0.22301159      -0.35230163       0.69102199
H        0.32601159      -2.42830163      -0.60497801
H        2.68201159      -1.63030163       1.29602199
H        1.95530159      -2.01731263      -1.20745801
H        0.52005159      -1.04230063      -1.69256801
