30
Properties=species:S:1:pos:R:3 pbc="F F F"
C        0.53964817       1.45993751      -2.99833633
C       -0.10035183       2.01893751      -0.61033633
C        0.47364817       1.19993751      -1.52333633
C        0.89564817       0.41493751       0.61266367
C        1.11364817       0.13393751      -0.76533633
C        1.38464817      -0.40406249       1.62266367
C        1.86364817      -1.01406249      -1.10433633
C        2.10964817      -1.53306249       1.26766367
C        2.35164817      -1.84706249      -0.07733633
N        0.15064817       1.57093751       0.67166367
H       -0.62635183       2.92693751      -0.86633633
H       -0.05035183       2.10893751       1.51766367
H        1.56464817       1.44393751      -3.33933633
H        0.18464817       2.48093751      -3.14833633
H        1.17664817      -0.17706249       2.65866367
H        2.07264817      -1.25106249      -2.13433633
H        2.49064817      -2.18506249       2.04066367
H        2.92164817      -2.72906249      -0.33333633
H       -0.04964183       0.79052751      -3.64225333
C       -2.78235183      -0.26906249       0.81666367
C       -3.80035183      -0.77806249      -0.21933633
C       -2.88735183      -1.01106249       2.16966367
H       -1.77735183      -0.41206249       0.42166367
H       -2.93535183       0.79393751       1.00666367
H       -4.80135183      -0.64806249       0.19666367
H       -2.57335183      -2.04906249       2.06766367
H       -2.22435183      -0.53306249       2.89066367
H       -3.90935183      -0.96706249       2.54466367
H       -3.72377183      -0.16755249      -1.13115783
H       -3.67641183      -1.84793249      -0.44299693
