29
Properties=species:S:1:pos:R:3 pbc="F F F"
C        1.15578599      -2.92082256      -1.89955989
C       -0.99321401      -1.90682256      -2.60355989
N       -2.01121401      -1.12682256      -2.30955989
N       -0.01821401      -2.06282256      -1.71955989
N       -0.96021401      -2.52582256      -3.77055989
H       -2.02921401      -0.64882256      -1.41955989
H       -2.77421401      -1.01182256      -2.95855989
H       -0.13521401      -1.59882256      -0.82555989
H       -0.18821401      -3.12682256      -3.99955989
H       -1.71221401      -2.40682256      -4.43155989
H        0.89678599      -3.79982256      -2.49455989
H        1.45478599      -3.29082256      -0.91655989
H        2.01741849      -2.40688256      -2.35061589
C        1.96778599       3.58117744       2.94644011
C       -0.33721401       0.44517744       1.09844011
C       -0.76021401       1.00717744       2.29944011
C        0.82478599       0.90517744       0.48244011
C       -0.01121401       2.02317744       2.88444011
C        1.57878599       1.91417744       1.08644011
C        1.16678599       2.48017744       2.29244011
O       -1.06821401      -0.54882256       0.52544011
H       -1.81821401      -0.78882256       1.08844011
H       -1.66721401       0.66017744       2.77644011
H        1.13778599       0.48217744      -0.45955989
H       -0.34621401       2.46217744       3.81644011
H        2.48378599       2.26417744       0.60844011
H        1.27578599       4.37017744       3.24244011
H        2.65378599       4.00617744       2.21344011
H        2.53120389       3.25819744       3.83427211
