30
Properties=species:S:1:pos:R:3 pbc="F F F"
C        0.28205033      -1.64677101      -2.36707262
C       -1.19294967      -0.75177101      -0.44407262
C       -0.00894967      -1.20877101      -0.96207262
C        0.23905033      -0.77077101       1.27892738
C        0.91905033      -1.24577101       0.12492738
C        0.85605033      -0.68677101       2.51792738
C        2.26805033      -1.61577101       0.23792738
C        2.19005033      -1.05877101       2.60392738
C        2.89105033      -1.52977101       1.47692738
N       -1.04294967      -0.48577101       0.89292738
H       -2.12394967      -0.65977101      -0.99107262
H       -1.80094967      -0.23577101       1.51792738
H        0.05805033      -2.70977101      -2.46207262
H        1.35105033      -1.51777101      -2.54007262
H        0.31505033      -0.33577101       3.38592738
H        2.81105033      -1.96277101      -0.62807262
H        2.69805033      -1.00177101       3.55992738
H        3.92805033      -1.82377101       1.57792738
H       -0.26542467      -1.08629501      -3.13917262
C       -1.73194967       2.67522899      -1.67307262
C       -1.97594967       3.92922899      -2.49507262
N       -2.33694967       2.81222899      -0.31907262
H       -2.17894967       1.82122899      -2.19307262
H       -0.65194967       2.50222899      -1.59607262
H       -1.32194967       4.73522899      -2.15307262
H       -3.01294967       4.25122899      -2.36807262
H       -3.34494967       2.91622899      -0.36707262
H       -2.13394967       2.00822899       0.26092738
H       -1.96994967       3.62622899       0.16292738
H       -1.81712867       3.74080899      -3.56711262
