22
Properties=species:S:1:pos:R:3 pbc="F F F"
C        0.65189512      -0.09110533       1.73892029
C        0.10989512       0.03289467       3.16192029
C        2.06789512       0.43389467       1.62392029
H        0.61589512      -1.12510533       1.41492029
H        0.00789512       0.47589467       1.06792029
H        0.91389512      -0.21910533       3.85792029
H        2.12689512       1.43389467       2.05392029
H        2.73189512      -0.20910533       2.20692029
H       -0.71735188      -0.67509533       3.31816029
H       -0.20595688       1.07266467       3.33255029
H        2.40660612       0.48695467       0.57871229
C       -0.88610488       0.13089467      -1.69807971
C        0.03689512      -1.00610533      -2.16807971
C       -2.00010488       0.49289467      -2.66507971
H       -1.33410488      -0.13610533      -0.74607971
H       -0.28710488       1.02389467      -1.52707971
H        0.70889512      -1.25210533      -1.34407971
H       -2.75210488      -0.29210533      -2.68107971
H       -2.48010488       1.41089467      -2.32407971
H       -1.61410488       0.66389467      -3.66907971
H       -0.53347688      -1.90627533      -2.44077371
H        0.64622912      -0.67406533      -3.02157971
