23
Properties=species:S:1:pos:R:3 pbc="F F F"
C       -1.74050184       1.67804896       2.74008888
C       -1.52250184       0.76404896       3.95708888
H       -2.80350184       1.74904896       2.50708888
H       -1.38550184       2.67904896       2.97908888
H       -1.18950184       1.29704896       1.88008888
H       -2.18450184       1.08504896       4.75508888
H       -1.73495184      -0.28515104       3.70402888
H       -0.48826184       0.82655896       4.32645888
C        2.66849816      -1.57695104      -1.27991112
C        0.07049816       1.15604896      -0.59491112
C       -1.08450184       0.50204896      -0.98991112
C        1.28749816       0.46804896      -0.70091112
C        1.35249816      -0.85895104      -1.14391112
C       -1.03250184      -0.82595104      -1.40591112
C        0.19449816      -1.50795104      -1.51491112
H        0.03949816       2.18104896      -0.25391112
H       -2.02650184       1.02404896      -0.96691112
H        2.20049816       0.97604896      -0.42091112
H       -1.94450184      -1.34095104      -1.65991112
H        2.53549816      -2.64795104      -1.11791112
H        3.32049816      -1.20795104      -0.48791112
H        0.21849816      -2.53095104      -1.86491112
H        3.13724816      -1.40323104      -2.25975712
