19
Properties=species:S:1:pos:R:3 pbc="F F F"
C        0.95657952      -1.29993950      -1.85343632
C        2.36357952      -0.74093950      -2.12043632
H        0.91857952      -1.75893950      -0.86443632
H        0.22657952      -0.49293950      -1.90943632
H        0.71157952      -2.04693950      -2.60543632
H        2.31357952      -0.25093950      -3.08943632
H        3.08132952      -1.56982880      -2.20862632
H        2.63596952       0.03318250      -1.38794632
C       -0.83042048       0.48206050       1.01156368
C       -1.37942048      -0.39293950       2.15256368
C       -1.16742048       1.99006050       0.90156368
H        0.25657952       0.38306050       1.01556368
H       -1.16842048       0.02006050       0.08256368
H       -2.44142048      -0.18693950       2.27756368
H       -0.90242048       2.51506050       1.81856368
H       -0.85109048      -0.14219550       3.08422368
H       -1.24875048      -1.46683000       1.95335368
H       -0.61051048       2.40721550       0.04960368
H       -2.24117048       2.10057250       0.68980368
