15
Properties=species:S:1:pos:R:3 pbc="F F F"
C       -3.02699751      -0.34566704       0.57205652
N       -2.11799751       0.82233296       0.95105652
H       -2.32499751       1.65333296       0.41305652
H       -2.23999751       1.05933296       1.92905652
H       -1.12999751       0.57833296       0.83405652
H       -4.06999751      -0.07866704       0.77405652
H       -2.78399751      -1.22566704       1.17605652
H       -2.93534459      -0.60916904      -0.49197348
C        0.99500249      -1.25066704      -1.24894348
C        1.39200249      -0.07866704      -0.38394348
O        0.73900249       0.18233296       0.65705652
O        2.40400249       0.55833296      -0.70894348
H        0.82200249      -0.89166704      -2.26494348
H        0.07500249      -1.66766704      -0.86494348
H        1.75876049      -2.04226204      -1.25608348
