16
Properties=species:S:1:pos:R:3 pbc="F F F"
C        2.08132485      -0.33878430       0.08254413
C        2.54232485      -0.68378430      -1.34745587
H        2.46032485       0.63921570       0.35554413
H        0.99632485      -0.34678430       0.13054413
H        2.45132485      -1.07878430       0.79354413
H        2.27632485      -1.72478430      -1.54045587
H        3.63507985      -0.58209930      -1.42192887
H        2.01333885      -0.08751213      -2.10550187
C       -1.57467515       0.34121570       0.51254413
C       -3.04767515       0.68121570       0.75154413
H       -1.47067515      -0.37278430      -0.30345587
H       -1.03967515       1.25221570       0.24354413
H       -1.13867515      -0.07578430       1.41954413
H       -3.46767515       1.08521570      -0.16945587
H       -3.08167515       1.46421570       1.50754413
H       -3.64982585      -0.17069475       1.10034613
