18
Properties=species:S:1:pos:R:3 pbc="F F F"
C        1.81829168      -0.79894512       0.13549615
C        1.50129168      -1.99994512       1.02749615
C        3.04329168      -1.08694512      -0.74050385
H        0.95529168      -0.60094512      -0.50150385
H        2.01529168       0.08105488       0.75049615
H        2.37929168      -2.26494512       1.61549615
H        1.27829168      -2.84994512       0.38049615
H        3.93029168      -1.13394512      -0.09950385
H        2.91429168      -2.07394512      -1.19850385
H        0.63012668      -1.83925872       1.67960905
H        3.18312168      -0.33529112      -1.53136785
C       -1.09970832       2.06205488      -0.91450385
C       -1.63170832       0.92405488      -0.05550385
O       -1.79670832       1.12005488       1.15549615
O       -1.83970832      -0.19094512      -0.59750385
H       -1.64370832       2.10605488      -1.86050385
H       -0.05570832       1.84105488      -1.14650385
H       -1.14056732       3.04409588      -0.42061585
