17
Properties=species:S:1:pos:R:3 pbc="F F F"
C       -0.70225291       0.89592372       0.28350567
C       -0.23925291       1.27592372       1.69650567
O       -1.96625291       1.45792372      -0.01449433
H        0.02874709       1.24792372      -0.44549433
H       -0.79125291      -0.18807628       0.23850567
H        0.82274709       1.07592372       1.79550567
H       -2.63225291       1.03592372       0.54350567
H       -0.77639491       0.69815772       2.46309867
H       -0.37479091       2.35157772       1.88251067
C        1.04274709      -1.70707628      -1.54949433
C        2.05374709      -1.99207628      -0.44949433
H        0.49574709      -2.61907628      -1.79049433
H        0.33774709      -0.96107628      -1.23449433
H        1.53974709      -1.35507628      -2.45549433
H        1.55174709      -2.54007628       0.34750567
H        2.47120009      -1.06392428      -0.03204133
H        2.85728209      -2.62353028      -0.85643133
