26
Properties=species:S:1:pos:R:3 pbc="F F F"
C       -0.72640570      -1.85472155       1.80041341
C       -1.73040570      -2.87172155       1.21441341
C       -0.85440570      -1.48672155       3.28641341
H        0.27259430      -2.23872155       1.67441341
H       -0.81140570      -0.93972155       1.21341341
H       -2.74740570      -2.49072155       1.32541341
H       -1.64540570      -3.81572155       1.75341341
H       -1.89740570      -1.21972155       3.48841341
H       -0.61140570      -2.36672155       3.89041341
H       -1.51720340      -3.03508455       0.14771341
H       -0.19993150      -0.64576855       3.55929341
C        2.82859430       1.50827845      -0.14458659
C       -1.06840570       1.23927845      -0.47758659
C        0.22859430       1.54227845       0.05541341
C       -1.18440570       0.60727845      -1.71858659
C        1.40659430       1.19127845      -0.63758659
C       -0.02640570       0.25127845      -2.37358659
C        1.24559430       0.55227845      -1.85258659
H       -1.95940570       1.51427845       0.07141341
H        0.25959430       2.02027845       1.01741341
H       -2.15440570       0.37927845      -2.13958659
H       -0.10740570      -0.24572155      -3.32858659
H        3.29359430       2.17627845      -0.87158659
H        3.39759430       0.57827845      -0.13558659
H        2.12459430       0.27427845      -2.41658659
H        2.88612230       1.96705845       0.85351341
