27
Properties=species:S:1:pos:R:3 pbc="F F F"
C        0.18671712      -0.42223534       3.06836717
C        0.34171712       0.50776466       0.62436717
C        0.90271712      -0.08223534       1.80936717
C        1.37771712       0.53576466      -0.35163283
C        2.20071712      -0.36023534       1.53636717
C       -0.93328288       0.97676466       0.26236717
C       -1.12128288       1.52176466      -1.02563283
C       -0.05728288       1.53076466      -1.95363283
C        1.19971712       1.07076466      -1.61463283
N        2.48971712       0.02176466       0.25136717
H       -1.75028288       0.93576466       0.93836717
H       -2.09428288       1.89076466      -1.31563283
H       -0.23228288       1.91276466      -2.94963283
H       -0.40328288       0.42576466       3.40536717
H        0.91471712      -0.66023534       3.84536717
H        2.89371712      -0.84123534       2.22036717
H        3.38471712      -0.12723534      -0.21063283
H        2.01271712       1.08276466      -2.32563283
H       -0.47943288      -1.28393534       2.91436717
C       -3.20428288      -1.93923534      -0.62563283
C       -2.67328288      -2.52123534      -1.93163283
H       -3.96228288      -1.18823534      -0.84763283
H       -3.64128288      -2.73023534      -0.01563283
H       -2.39028288      -1.47423534      -0.07163283
H       -1.96428288      -3.31023534      -1.69163283
H       -2.16036288      -1.72606534      -2.49254283
H       -3.51327288      -2.96053534      -2.48968283
