26
Properties=species:S:1:pos:R:3 pbc="F F F"
C       -1.65010444       2.21694160      -1.86295534
C       -1.20010444      -1.23605840      -0.31495534
C       -1.00410444      -0.92005840       1.02404466
C       -1.40710444      -0.22005840      -1.24395534
C       -1.41410444       1.11794160      -0.84795534
C       -1.01510444       0.41194160       1.43104466
C       -1.23110444       1.42094160       0.50104466
H       -1.19510444      -2.26905840      -0.63595534
H       -0.84010444      -1.70605840       1.74904466
H       -1.55210444      -0.47505840      -2.28495534
H       -0.86810444       0.65894160       2.47404466
H       -2.62810444       2.64694160      -1.67595534
H       -1.67810444       1.77994160      -2.86295534
H       -1.26910444       2.44494160       0.83104466
H       -0.89084444       3.01280160      -1.85147334
C        2.57489556      -0.66705840      -0.07495534
C        2.83589556       0.16694160       1.19604466
C        2.64389556      -2.17705840       0.20204466
H        1.55389556      -0.43805840      -0.37995534
H        3.17989556      -0.40405840      -0.92995534
H        2.03089556      -0.06405840       1.89804466
H        3.66489556      -2.48105840       0.43804466
H        2.01589556      -2.38605840       1.07104466
H        2.78329556       1.24520160       0.98490066
H        3.76050556      -0.15107840       1.69998716
H        2.26371556      -2.77756840      -0.63751334
