16
Properties=species:S:1:pos:R:3 pbc="F F F"
C        0.97429147       0.93299722       0.43370737
C        2.11429147       1.51899722       1.26370737
H        1.34529147       0.11099722      -0.18129263
H        0.19429147       0.55699722       1.09770737
H        0.52729147       1.69199722      -0.20629263
H        1.73029147       2.38499722       1.80270737
H        2.93910547       1.84533722       0.61317737
H        2.46447747       0.78309722       2.00250737
C       -1.75370853      -0.64600278      -1.30229263
C       -1.33370853      -1.81200278      -0.40529263
H       -2.72970853      -0.83900278      -1.74129263
H       -1.82070853       0.26099722      -0.70029263
H       -1.01970853      -0.48200278      -2.09129263
H       -2.01170853      -1.86000278       0.44570737
H       -0.34370853      -1.59700278      -0.00329263
H       -1.28909853      -2.78478278      -0.91686263
