15
Properties=species:S:1:pos:R:3 pbc="F F F"
C       -0.44063751       0.58346218       2.07342845
C       -1.02863751       1.72746218       2.88942845
H       -0.60563751      -0.37953782       2.55442845
H       -0.93563751       0.55446218       1.10442845
H        0.62736249       0.72446218       1.90042845
H       -2.10063751       1.55946218       3.00042845
H       -0.56174951       1.76045318       3.88488145
H       -0.89117551       2.68173618       2.35983845
C        1.77736249      -0.74053782      -0.96357155
C        0.29736249      -0.57753782      -1.27957155
O       -0.08263751       0.44246218      -1.89657155
O       -0.49463751      -1.47353782      -0.91157155
H        2.11736249      -1.72453782      -1.29457155
H        1.91636249      -0.67153782       0.11842845
H        2.38192849       0.02983218      -1.46460125
