23
Properties=species:S:1:pos:R:3 pbc="F F F"
C       -1.89923098       0.31215376       1.61978794
C        0.41776902       0.56615376       0.52478794
C       -0.96323098       0.85915376       0.52978794
C        1.23776902       1.06915376      -0.49521206
C        0.69176902       1.83015376      -1.55921206
C       -1.48023098       1.63315376      -0.52221206
C       -0.64923098       2.12615376      -1.57221206
H        0.85476902      -0.02084624       1.31978794
H        2.29876902       0.86015376      -0.48021206
H       -1.52823098      -0.67284624       1.89478794
H       -2.88923098       0.16915376       1.18578794
H        1.34076902       2.18715376      -2.34421206
H       -2.52923098       1.87215376      -0.53221206
H       -1.07223098       2.72515376      -2.36621206
H       -2.00489098       0.93114976       2.52293694
C        0.66376902      -3.15584624       0.50778794
C        1.82276902      -4.09484624       0.59378794
H        0.82176902      -2.29284624       1.15378794
H        0.55176902      -2.80584624      -0.51921206
H       -0.26823098      -3.65184624       0.77678794
H        1.56876902      -5.02284624       0.08078794
H        2.04701902      -4.28716624       1.65337394
H        2.69202902      -3.63869624       0.09747894
