16
Properties=species:S:1:pos:R:3 pbc="F F F"
C        0.76306760       1.33885986       0.67975001
C        1.06906760       2.33385986       1.76675001
H        0.20006760       1.80785986      -0.12824999
H        1.69506760       0.93785986       0.27875001
H        0.19606760       0.51085986       1.09975001
H        1.54706760       1.82985986       2.60675001
H        0.14232760       2.82835986       2.09328101
H        1.73788760       3.11728986       1.38083901
C       -0.64393240      -1.30214014      -0.76524999
C       -1.18493240      -2.36914014      -1.68824999
H       -1.29293240      -0.42814014      -0.76024999
H       -0.58393240      -1.69514014       0.24975001
H        0.35606760      -1.00914014      -1.09024999
H       -2.17693240      -2.59014014      -1.31424999
H       -1.25558240      -2.02742014      -2.73143499
H       -0.60414240      -3.29926014      -1.60127599
