25
Properties=species:S:1:pos:R:3 pbc="F F F"
C       -0.77065055       3.42991661      -1.05381538
C        0.41734945       2.05691661       0.65518462
N       -0.68465055       2.62291661       0.16818462
N        1.56334945       2.15691661       0.01718462
N        0.36334945       1.39091661       1.77518462
H       -1.52965055       2.51191661       0.71918462
H        1.66934945       2.71491661      -0.80081538
H        2.41134945       1.73791661       0.42918462
H       -0.50465055       0.95891661       2.00418462
H        1.22734945       0.98091661       2.15318462
H        0.17334945       3.42691661      -1.59881538
H       -0.97565055       4.47091661      -0.78781538
H       -1.54602055       3.05159661      -1.73622538
C       -0.41965055      -0.95708339      -2.15481538
C        0.76534945      -1.60808339       0.04318462
C       -0.21065055      -1.74208339      -0.89481538
C       -0.62465055      -3.15708339       0.72718462
N        0.50034945      -2.51208339       1.04018462
N       -1.09965055      -2.69008339      -0.42981538
H        1.59634945      -0.92108339       0.00418462
H        1.08034945      -2.70208339       1.85018462
H        0.36934945      -0.21008339      -2.21381538
H       -1.36765055      -0.42408339      -2.07581538
H       -1.07765055      -3.94408339       1.31918462
H       -0.41392055      -1.54861339      -3.08221538
