20
Properties=species:S:1:pos:R:3 pbc="F F F"
C       -2.01604168      -2.05213464      -1.28035243
C       -2.77804168      -0.77213464      -1.64235243
H       -1.18904168      -1.82613464      -0.60735243
H       -2.69704168      -2.73813464      -0.77935243
H       -1.64204168      -2.56213464      -2.16635243
H       -3.54004168      -1.01913464      -2.37735243
H       -2.09390468      -0.03068464      -2.08077243
H       -3.27738968      -0.36278464      -0.75180243
C       -0.08804168      -0.29513464       2.35064757
C        1.21295832      -0.45813464       0.11064757
C        0.52995832       0.20886536       1.07764757
C        1.30295832       1.69086536      -0.35035243
N        1.69095832       0.49086536      -0.77035243
N        0.59795832       1.54886536       0.76264757
H        1.40895832      -1.52213464       0.08864757
H        2.35195832       0.33586536      -1.52435243
H       -0.38004168      -1.33713464       2.21964757
H       -0.99104168       0.28286536       2.54464757
H        1.52895832       2.63286536      -0.83535243
H        0.59442432      -0.20486464       3.20860757
