18
Properties=species:S:1:pos:R:3 pbc="F F F"
C        1.70675206       1.03021358      -0.40261962
C        2.62575206       2.02421358       0.26338038
C        2.01075206      -0.23578642       0.36638038
H        1.93475206       0.92121358      -1.46361962
H        0.68075206       1.35121358      -0.26461962
H        3.64975206       1.90021358      -0.09261962
H        2.26175206       3.03321358       0.06838038
H        2.97475206      -0.63278642       0.04038038
H        1.23675206      -0.98978642       0.23738038
H        2.55378206       1.74232358       1.32420938
H        2.07124206       0.11779358       1.40624538
C       -1.94124794      -1.14778642      -1.38661962
C       -1.56324794      -0.67478642       0.00838038
O       -1.30024794      -1.53378642       0.88138038
O       -1.53924794       0.55421358       0.23038038
H       -1.42724794      -0.53778642      -2.13061962
H       -3.00624794      -1.02178642      -1.50061962
H       -1.68723794      -2.20484342      -1.55428062
