24
Properties=species:S:1:pos:R:3 pbc="F F F"
C        1.43985475      -2.68370978       1.55417841
C        2.72085475      -1.89870978       1.23017841
H        1.25985475      -2.74370978       2.62317841
H        0.58285475      -2.20570978       1.07917841
H        1.52685475      -3.69370978       1.16217841
H        2.63785475      -0.89970978       1.65417841
H        3.60267475      -2.40609778       1.64844841
H        2.83563475      -1.79764678       0.14085841
C       -1.68914525       0.23129022      -3.05482159
C       -1.05114525      -0.08370978       0.68517841
C       -0.03814525       0.83629022       0.85617841
C       -1.60614525      -0.26570978      -0.58682159
C       -1.12414525       0.44229022      -1.67082159
C        0.41185475       1.56429022      -0.23682159
C       -0.10914525       1.36129022      -1.49082159
O        0.49385475       1.01529022       2.09517841
H       -1.42914525      -0.64470978       1.52417841
H       -2.41014525      -0.97970978      -0.72382159
H        0.89985475       2.48529022      -0.13882159
H        0.26385475       0.28429022       2.69617841
H       -2.19314525      -0.73270978      -3.09582159
H       -0.82314525       0.14529022      -3.71482159
H        0.21985475       1.97329022      -2.32482159
H       -2.35664525       1.01564022      -3.44115159
