16
Properties=species:S:1:pos:R:3 pbc="F F F"
C        0.32475370       3.00524944      -0.56374879
C        0.22575370       1.50224944      -0.32574879
O        0.14375370       0.73424944      -1.30674879
O        0.26575370       1.08024944       0.84725121
H        1.37175370       3.25624944      -0.41774879
H       -0.27524630       3.55524944       0.16225121
H        0.02518370       3.29260344      -1.58241879
C       -0.84424630      -1.99975056       0.62325121
C        0.33675370      -2.51775056       1.44025121
O       -0.42924630      -1.65375056      -0.67674879
H       -1.60524630      -2.77875056       0.57125121
H       -1.27524630      -1.12375056       1.10925121
H       -0.02424630      -2.73975056       2.44625121
H       -0.24024630      -0.68375056      -0.74674879
H        1.12477870      -1.75308056       1.50579441
H        0.69926170      -3.45723756       0.99758721
