23
Properties=species:S:1:pos:R:3 pbc="F F F"
C        0.52799923       3.34929303      -1.43802247
C       -0.93500077       3.62829303      -1.67802247
H        0.72499923       3.22929303      -0.37202247
H        0.80699923       2.43829303      -1.96302247
H        1.13899923       4.16029303      -1.83602247
H       -1.10200077       3.67729303      -2.75402247
H       -1.10737077       4.60767303      -1.20780447
H       -1.60523077       2.87570303      -1.23711747
C        1.32999923       0.51629303       1.78697753
C        0.34399923      -0.33870697      -0.37902247
C        0.59099923      -0.51570697       0.96997753
C       -0.44400077      -1.26970697      -1.07102247
C        0.08499923      -1.63070697       1.59397753
C       -0.93600077      -2.37270697      -0.42102247
C       -0.65400077      -2.57570697       0.90897753
H        0.72899923       0.52729303      -0.88902247
H       -0.68600077      -1.14070697      -2.11102247
H        0.95299923       0.48329303       2.81097753
H        1.10899923       1.51129303       1.39597753
H        0.27299923      -1.78270697       2.64797753
H       -1.54300077      -3.08670697      -0.95902247
H       -1.02600077      -3.45270697       1.41497753
H        2.41901923       0.36277303       1.80859953
