17
Properties=species:S:1:pos:R:3 pbc="F F F"
C       -1.84155165      -1.39700747       1.36020968
C       -3.11655165      -0.56700747       1.33720968
H       -1.70355165      -1.83200747       2.35020968
H       -1.91355165      -2.20100747       0.63220968
H       -1.01955165      -0.74500747       1.13720968
H       -3.92155165      -1.10900747       1.83320968
H       -2.94442165       0.40817253       1.81615968
H       -3.43768165      -0.30497747       0.31827968
C        1.22444835       1.82399253      -0.00379032
C        1.27044835       0.46599253      -0.76779032
O        1.52644835       0.39799253      -2.00079032
N        1.03444835      -0.63000747      -0.02479032
H        1.11244835      -1.52700747      -0.47479032
H        0.92144835      -0.55800747       0.97320968
H        2.21644835       2.01999253       0.40320968
H        0.51744835       1.74899253       0.82420968
H        0.92093835       2.65324253      -0.65971032
