24
Properties=species:S:1:pos:R:3 pbc="F F F"
C       -0.00286967       1.80128579      -2.35908531
C        0.19013033       1.37028579       0.09091469
C        0.46513033       0.96628579      -1.20508531
C        0.61013033       0.62128579       1.17691469
C        1.30013033      -0.55371421       0.98191469
C        1.13413033      -0.23071421      -1.39208531
C        1.55113033      -0.98971421      -0.29708531
O        1.71913033      -1.30771421       2.04091469
H       -0.33686967       2.29928579       0.26691469
H        0.39813033       0.96428579       2.17891469
H       -0.45686967       2.71328579      -1.97708531
H       -0.77986967       1.24328579      -2.88208531
H        1.33413033      -0.58571421      -2.39308531
H        1.47013033      -0.91571421       2.88491469
H        2.07913033      -1.91871421      -0.44408531
H        0.78514233       2.07187279      -3.07729131
C       -2.56786967      -1.08971421       0.05291469
C       -3.75286967      -0.28871421       0.54091469
H       -2.26386967      -1.81871421       0.80091469
H       -2.83186967      -1.62371421      -0.85408531
H       -1.72886967      -0.43071421      -0.15108531
H       -4.61186967      -0.95271421       0.47491469
H       -3.60782667      -0.01385821       1.59610069
H       -3.95136867       0.58052279      -0.10330931
