23
Properties=species:S:1:pos:R:3 pbc="F F F"
C       -1.20863302      -2.84758180      -1.57913626
C        0.63136698      -0.66558180       0.65886374
C       -0.75163302      -1.92358180      -0.49713626
C       -1.41263302      -1.47758180       0.60086374
N        0.52536698      -1.40158180      -0.44213626
N       -0.52763302      -0.69158180       1.30686374
H        1.53936698      -0.19358180       1.01286374
H       -0.68063302      -0.27858180       2.21886374
H       -2.42863302      -1.72958180       0.87786374
H       -1.76263302      -3.66458180      -1.13113626
H       -0.31263302      -3.26958180      -2.03413626
H       -1.81811302      -2.37825180      -2.36542626
C        0.28236698       2.84541820      -0.14413626
C        1.33236698       2.15641820      -1.00613626
C        0.95336698       3.43541820       1.08186374
H       -0.22063302       3.62741820      -0.71013626
H       -0.46763302       2.11841820       0.17386374
H        1.87736698       1.43141820      -0.40413626
H        2.06036698       2.90241820      -1.33613626
H        1.26836698       2.61541820       1.73186374
H        1.83536698       3.99041820       0.75286374
H        0.91806698       1.64844820      -1.88949626
H        0.29004698       4.11974820       1.63113374
