14
Properties=species:S:1:pos:R:3 pbc="F F F"
C       -1.61374044       1.21240998       1.46485645
O       -0.25574044       0.85140998       1.28385645
H        0.20725956       1.61040998       0.86885645
H       -2.20574044       0.88140998       0.61185645
H       -1.67974044       2.29840998       1.54285645
H       -2.00491044       0.76215998       2.38911645
C        1.46125956      -0.72659002      -1.02714355
C        0.47825956      -1.52159002      -1.87314355
H        2.47625956      -1.09259002      -1.19614355
H        1.41525956       0.32740998      -1.30414355
H        1.20925956      -0.83559002       0.02685645
H        0.79825956      -1.44159002      -2.90914355
H        0.50061956      -2.56615002      -1.52904355
H       -0.53928044      -1.11558002      -1.77434355
