20
Properties=species:S:1:pos:R:3 pbc="F F F"
C       -2.94321139       1.63791173      -1.51976035
C       -1.75521139       0.26491173       0.18923965
N       -0.60921139       0.36491173      -0.44876035
N       -2.85721139       0.83091173      -0.29776035
N       -1.80921139      -0.40108827       1.30923965
H       -0.50321139       0.92291173      -1.26676035
H        0.23878861      -0.05408827      -0.03676035
H       -3.70221139       0.71991173       0.25323965
H       -2.67721139      -0.83308827       1.53823965
H       -0.94521139      -0.81108827       1.68723965
H       -1.99921139       1.63491173      -2.06476035
H       -3.14821139       2.67891173      -1.25376035
H       -3.71858139       1.25959173      -2.20217035
C        3.89678861      -1.00608827       0.25023965
C        2.41978861      -0.65208827       0.19123965
O        2.07378861       0.54491173       0.13223965
O        1.56078861      -1.56208827       0.20223965
H        4.11978861      -1.74608827      -0.52076035
H        4.11678861      -1.44708827       1.22323965
H        4.55831861      -0.13878827       0.10822965
