30
Properties=species:S:1:pos:R:3 pbc="F F F"
C        1.52865667       0.81011205       1.05663678
C        2.99665667       0.80511205       0.61763678
C        0.55165667       0.07711205       0.17563678
C        0.07065667      -1.17988795       0.36963678
C       -0.17234333       0.60711205      -0.95636322
C       -1.09134333      -0.39488795      -1.38236322
C       -0.15134333       1.83211205      -1.64636322
C       -1.96534333      -0.20788795      -2.45736322
C       -1.03034333       2.02311205      -2.72736322
C       -1.92634333       1.00911205      -3.12436322
N       -0.91034333      -1.46888795      -0.55036322
H        1.49265667       0.38211205       2.04363678
H        1.19365667       1.84411205       1.15663678
H        3.57565667       1.22511205       1.42863678
H        0.34865667      -1.80988795       1.20163678
H       -1.45734333      -2.32888795      -0.53936322
H        0.53565667       2.60911205      -1.35036322
H       -2.65134333      -0.98788795      -2.75236322
H       -1.02034333       2.96111205      -3.26236322
H       -2.59434333       1.18311205      -3.96036322
H        3.12914667       1.42440205      -0.28177322
H        3.38298667      -0.21391795       0.46820678
C        1.17665667      -1.27088795       4.04663678
C        0.22865667      -2.08488795       4.90563678
H        1.49765667      -1.83188795       3.17063678
H        0.61865667      -0.39188795       3.74063678
H        2.04265667      -0.96288795       4.63263678
H       -0.19134333      -1.41988795       5.66063678
H        0.75687667      -2.92099795       5.38720678
H       -0.58192333      -2.48286795       4.27749678
