19
Properties=species:S:1:pos:R:3 pbc="F F F"
C        1.20216614      -1.95322883      -0.08009464
C        1.46816614      -3.47122883       0.14790536
H        0.16516614      -1.79822883      -0.37509464
H        1.38816614      -1.40022883       0.83790536
H        1.85716614      -1.57222883      -0.86309464
H        0.81616614      -3.84222883       0.93990536
H        2.50816614      -3.60922883       0.45490536
H        1.29367614      -4.08300883      -0.74946464
C       -0.47183386       1.36377117      -0.21709464
C       -1.90983386       1.63977117      -0.70809464
C       -0.31683386       2.49677117       0.83990536
H        0.26016614       1.47877117      -1.01909464
H       -0.36183386       0.37777117       0.22990536
H       -2.10983386       1.19977117      -1.68309464
H       -2.65383386       1.27777117       0.00690536
H        0.73516614       2.72377117       1.00690536
H       -0.78683386       2.24977117       1.79790536
H       -1.94581386       2.73800117      -0.75907464
H       -0.83003386       3.35565117       0.38278536
