19
Properties=species:S:1:pos:R:3 pbc="F F F"
C       -0.57614477      -0.88573584       0.63499762
C       -1.72114477      -1.54173584       1.45099762
C        0.53485523      -1.93073584       0.70799762
H       -0.25714477       0.03826416       1.10899762
H       -0.83614477      -0.69473584      -0.41000238
H       -1.51514477      -1.50173584       2.52399762
H       -2.67814477      -1.06673584       1.24999762
H        1.16885523      -1.91373584      -0.18300238
H       -1.67506477      -2.57423584       1.07442762
H       -0.02389477      -2.87823584       0.71698762
H        1.16040523      -1.80303584       1.60375762
C        1.28985523       1.61726416      -1.05900238
C        0.42985523       2.69526416      -1.69000238
H        1.28685523       0.73126416      -1.68900238
H        2.30485523       1.98126416      -0.95200238
H        0.89485523       1.36826416      -0.07800238
H        0.82085523       2.95826416      -2.67200238
H       -0.59853477       2.31846416      -1.79205238
H        0.45647523       3.58096416      -1.03816238
