27
Properties=species:S:1:pos:R:3 pbc="F F F"
C       -2.28849990       2.68266614      -0.37847912
C       -0.48949990       0.96266614       0.42452088
C       -1.47749990       1.97266614       0.66452088
C        0.00850010       0.54666614       1.68252088
C       -1.55949990       2.10866614       2.01452088
C        1.01350010      -0.58733386      -0.60947912
C        1.47150010      -0.99133386       0.64052088
C        0.02950010       0.37566614      -0.73147912
C        0.98050010      -0.42733386       1.80252088
N       -0.67149990       1.25966614       2.63252088
H        1.43650010      -1.02733386      -1.50147912
H        2.24450010      -1.74133386       0.69552088
H       -0.31549990       0.68866614      -1.70547912
H        1.31850010      -0.75333386       2.77252088
H       -1.62449990       3.06166614      -1.15747912
H       -2.78349990       3.53166614       0.08452088
H       -2.23449990       2.78566614       2.52852088
H       -0.57749990       1.18266614       3.64052088
H       -3.02627690       2.00191814      -0.82822012
C        0.75550010      -3.37033386      -3.28947912
C        2.09150010      -3.76333386      -3.86947912
H        0.41450010      -2.44833386      -3.75647912
H        0.03050010      -4.15833386      -3.48847912
H        0.84150010      -3.22733386      -2.21247912
H        2.46550010      -4.62933386      -3.33747912
H        2.76100010      -2.90202886      -3.72834082
H        1.99947010      -4.02229986      -4.93459312
