30
Properties=species:S:1:pos:R:3 pbc="F F F"
C        0.14240830      -2.12258054       3.25020009
C        0.74140830      -1.29558054       4.35320009
C       -0.62159170      -3.21058054       3.94620009
H        0.93940830      -2.56058054       2.64720009
H       -0.51059170      -1.51858054       2.61920009
H        1.70440830      -0.88558054       4.04520009
H        0.05640830      -0.49358054       4.63220009
H       -0.75359170      -4.08758054       3.31020009
H       -1.59559170      -2.82558054       4.25520009
H        0.84948830      -2.00035054       5.19082009
H       -0.01747170      -3.42350054       4.84046009
C       -1.28659170       0.16841946      -3.94779991
C       -0.09959170       0.39441946      -1.60279991
C       -0.86059170       0.90241946      -2.71979991
C        0.08240830       1.46841946      -0.69479991
C       -1.09459170       2.20541946      -2.45179991
C        1.16640830      -0.98358054      -0.06079991
C        1.32640830       0.10341946       0.80720009
C        0.45940830      -0.85158054      -1.26879991
C        0.77740830       1.33441946       0.50020009
N       -0.54959170       2.54941946      -1.24379991
H        1.59840830      -1.94158054       0.19920009
H        1.88840830      -0.02158054       1.72320009
H        0.33640830      -1.70358054      -1.91579991
H        0.90140830       2.18341946       1.15420009
H       -1.72159170       0.88841946      -4.64279991
H       -2.07059170      -0.53758054      -3.67079991
H       -1.63859170       2.88241946      -3.10379991
H       -0.57759170       3.48241946      -0.85079991
H       -0.48469170      -0.37885054      -4.46494891
