26
Properties=species:S:1:pos:R:3 pbc="F F F"
C        2.52882997       1.01364625       1.12669900
C        2.99582997       2.22964625       1.94569900
C        3.66382997       0.05664625       0.74069900
H        1.77982997       0.46364625       1.69669900
H        2.05682997       1.38264625       0.21469900
H        3.70982997       2.79564625       1.34669900
H        4.10582997      -0.39835375       1.59469900
H        3.48910597       1.90430925       2.87350900
H        2.16457397       2.91901525       2.15494900
H        3.24790397      -0.75069775       0.12004900
H        4.48036497       0.56437725       0.20639900
C       -0.81117003      -2.62035375      -1.70130100
C       -0.86517003       1.03464625      -0.61830100
C       -1.98317003       1.06264625       0.20969900
C       -0.48817003      -0.16235375      -1.24030100
C       -1.21017003      -1.33235375      -1.02430100
C       -2.71017003      -0.10735375       0.42769900
C       -2.31917003      -1.29935375      -0.17730100
H       -0.29717003       1.93764625      -0.79130100
H       -2.29017003       1.98664625       0.67869900
H        0.36982997      -0.17235375      -1.89930100
H       -3.57317003      -0.09835375       1.07669900
H       -1.02317003      -3.45635375      -1.03230100
H        0.26682997      -2.60535375      -1.87130100
H       -2.88717003      -2.20035375       0.00069900
H       -1.31675525      -2.78816475      -2.66370100
