23
Properties=species:S:1:pos:R:3 pbc="F F F"
C        0.09585987      -1.56026918      -3.46057218
C       -0.34914013      -3.01626918      -3.48557218
H       -0.74914013      -0.90526918      -3.24857218
H        0.83985987      -1.45326918      -2.68057218
H        0.58185987      -1.26326918      -4.38957218
H        0.50185987      -3.63426918      -3.76257218
H       -1.14087413      -3.16394918      -4.23480218
H       -0.70113313      -3.33958918      -2.49483118
C       -0.30314013      -0.31526918       3.30642782
C        0.75885987       0.25473082      -0.28857218
C        0.31385987       1.54273082      -0.51757218
C        0.54185987      -0.34326918       0.95342782
C       -0.11514013       0.34473082       1.97242782
C       -0.34514013       2.23873082       0.49242782
C       -0.55414013       1.63873082       1.73442782
H        1.32985987      -0.26526918      -1.03657218
H        0.56785987       2.04673082      -1.43357218
H        0.90785987      -1.34526918       1.13042782
H       -0.66314013       3.25873082       0.32442782
H        0.68885987      -0.40126918       3.75342782
H       -0.67714013      -1.32926918       3.15442782
H       -1.05614013       2.22873082       2.47842782
H       -0.95162913       0.21773082       4.01732782
