24
Properties=species:S:1:pos:R:3 pbc="F F F"
C       -0.65627592      -2.80025907       0.34574068
C       -0.87427592      -0.76025907      -1.03625932
N       -0.24127592      -1.87625907      -0.71525932
N       -1.96327592      -0.40225907      -0.38825932
N       -0.41627592      -0.00025907      -2.01025932
H        0.52372408      -2.15325907      -1.33125932
H       -2.40927592      -1.04525907       0.25374068
H       -2.44527592       0.47774093      -0.58825932
H        0.38372408      -0.34225907      -2.53125932
H       -0.90427592       0.84074093      -2.27825932
H       -1.00727592      -3.72525907      -0.11825932
H       -1.46227592      -2.40125907       0.96074068
H        0.18662408      -3.03548607       1.01221768
C        1.03272408       1.64374093       0.97374068
C        1.08472408       1.64374093       2.48674068
C        2.09372408       2.55274093       0.36574068
H        1.17872408       0.62274093       0.62774068
H        0.04672408       1.97474093       0.64674068
H        0.71372408       2.59474093       2.87274068
H        2.12672408       1.53374093       2.79374068
H        1.88372408       3.58374093       0.65874068
H        3.08372408       2.29374093       0.74674068
H        0.50995408       0.80673933       2.90991168
H        2.06819408       2.47540393      -0.73124032
