28
Properties=species:S:1:pos:R:3 pbc="F F F"
C       -2.07638258      -2.37894039      -1.85527053
C       -1.94238258       0.92105961       0.07672947
C       -1.92438258       0.44105961       1.38072947
C       -1.93238258       0.00105961      -0.96327053
C       -1.96338258      -1.38294039      -0.72527053
C       -1.93738258      -0.92594039       1.63472947
C       -1.97138258      -1.84194039       0.58272947
O       -1.93938258       1.34105961       2.42372947
H       -1.93538258       1.98405961      -0.11727053
H       -1.92038258       0.37405961      -1.97927053
H       -1.88638258      -1.29294039       2.64172947
H       -1.89738258       0.89805961       3.28872947
H       -1.73738258      -3.35894039      -1.51427053
H       -1.42938258      -2.06694039      -2.67627053
H       -1.98838258      -2.90394039       0.79572947
H       -3.11477258      -2.46144039      -2.20874853
C        1.51261742      -0.18294039      -2.22727053
C        1.70961742       0.63605961       0.22672947
C        2.18961742       0.36705961      -1.01427053
C        3.86561742       1.07305961       0.21672947
N        2.76761742       1.10405961       0.96972947
N        3.54261742       0.63505961      -0.99327053
H        0.68461742       0.52405961       0.54772947
H        2.71461742       1.47905961       1.91072947
H        0.45861742      -0.33394039      -2.01127053
H        1.94461742      -1.15794039      -2.45027053
H        4.84961742       1.40505961       0.51972947
H        1.61886742       0.46398961      -3.11055853
